                                  MODFLOW-2005     
      U.S. GEOLOGICAL SURVEY MODULAR FINITE-DIFFERENCE GROUND-WATER FLOW MODEL
                            VERSION 1.5.00 4/28/2008

 LIST FILE: DEMO-T.LST
                         UNIT    1

 OPENING DEMO-T.DIS
 FILE TYPE:DIS   UNIT    9   STATUS:OLD    
 FORMAT:FORMATTED              ACCESS:SEQUENTIAL          

 OPENING DEMO-T.BA6
 FILE TYPE:BAS6   UNIT    2   STATUS:OLD    
 FORMAT:FORMATTED              ACCESS:SEQUENTIAL          

 OPENING DEMO-T.BC6
 FILE TYPE:BCF6   UNIT   11   STATUS:OLD    
 FORMAT:FORMATTED              ACCESS:SEQUENTIAL          

 OPENING DEMO-T.OC
 FILE TYPE:OC   UNIT   12   STATUS:OLD    
 FORMAT:FORMATTED              ACCESS:SEQUENTIAL          

 OPENING DEMO-T.RCH
 FILE TYPE:RCH   UNIT   13   STATUS:OLD    
 FORMAT:FORMATTED              ACCESS:SEQUENTIAL          

 OPENING DEMO-T.WEL
 FILE TYPE:WEL   UNIT   14   STATUS:OLD    
 FORMAT:FORMATTED              ACCESS:SEQUENTIAL          

 OPENING DEMO-T.PCG
 FILE TYPE:PCG   UNIT   15   STATUS:OLD    
 FORMAT:FORMATTED              ACCESS:SEQUENTIAL          

 OPENING DEMO-T.RIV
 FILE TYPE:RIV   UNIT   16   STATUS:OLD    
 FORMAT:FORMATTED              ACCESS:SEQUENTIAL          

 OPENING DEMO-T.HED
 FILE TYPE:DATA(BINARY)   UNIT   32   STATUS:UNKNOWN
 FORMAT:BINARY                 ACCESS:SEQUENTIAL          

 OPENING DEMO-T.BUD
 FILE TYPE:DATA(BINARY)   UNIT   34   STATUS:UNKNOWN
 FORMAT:BINARY                 ACCESS:SEQUENTIAL          

 OPENING DEMO-S.HED
 FILE TYPE:DATA(BINARY)   UNIT   65   STATUS:UNKNOWN
 FORMAT:BINARY                 ACCESS:SEQUENTIAL          

 BAS -- BASIC PACKAGE, VERSION 7, 5/2/2005 INPUT READ FROM UNIT    2

 DISCRETIZATION INPUT DATA READ FROM UNIT    9
    5 LAYERS        27 ROWS        27 COLUMNS
    3 STRESS PERIOD(S) IN SIMULATION
 MODEL TIME UNIT IS DAYS
 MODEL LENGTH UNIT IS UNDEFINED
  Confining bed flag for each layer:
   1   0   0   0   0



                               DELR
 READING ON UNIT    9 WITH FORMAT: (10F10.0)           
   400.00       400.00       400.00       400.00       400.00       400.00       400.00       400.00       300.00       200.00    
   150.00       100.00       60.000       40.000       60.000       100.00       150.00       200.00       300.00       400.00    
   400.00       400.00       400.00       400.00       400.00       400.00       400.00    



                               DELC
 READING ON UNIT    9 WITH FORMAT: (10F10.0)           
   400.00       400.00       400.00       400.00       400.00       400.00       400.00       400.00       300.00       200.00    
   150.00       100.00       60.000       40.000       60.000       100.00       150.00       200.00       300.00       400.00    
   400.00       400.00       400.00       400.00       400.00       400.00       400.00    

 TOP ELEVATION OF LAYER 1 =   400.000    

   MODEL LAYER BOTTOM EL. =   220.000     FOR LAYER   1

 BOT. EL. OF QUASI-3D BED =   200.000     FOR LAYER   1

   MODEL LAYER BOTTOM EL. =   150.000     FOR LAYER   2

   MODEL LAYER BOTTOM EL. =   100.000     FOR LAYER   3

   MODEL LAYER BOTTOM EL. =   50.0000     FOR LAYER   4

   MODEL LAYER BOTTOM EL. =   0.00000     FOR LAYER   5


 STRESS PERIOD     LENGTH       TIME STEPS     MULTIPLIER FOR DELT    SS FLAG
 ----------------------------------------------------------------------------
        1         182500.0          1                    1.000         TR
        2         10950.00          8                    2.000         TR
        3         456200.0          1                    1.000         TR

 TRANSIENT SIMULATION



 
 #MODPATH SAMPLE PROBLEM:                                                        
 #   TRANSIENT FLOW EXAMPLE                                                      

           BOUNDARY ARRAY =              1 FOR LAYER   1

           BOUNDARY ARRAY =              1 FOR LAYER   2

           BOUNDARY ARRAY =              1 FOR LAYER   3

           BOUNDARY ARRAY =              1 FOR LAYER   4

           BOUNDARY ARRAY =              1 FOR LAYER   5

 AQUIFER HEAD WILL BE SET TO  999.90     AT ALL NO-FLOW NODES (IBOUND=0).



                       INITIAL HEAD FOR LAYER   1
 READING BINARY ON UNIT   65

            1           2           3           4           5           6           7           8           9          10
           11          12          13          14          15          16          17          18          19          20
           21          22          23          24          25          26          27
 ........................................................................................................................
   1    302.7       302.7       302.5       302.3       302.0       301.6       301.2       300.7       300.1       299.7    
        299.4       299.2       299.0       298.9       298.8       298.6       298.4       298.0       297.4       296.5    
        295.3       294.0       292.4       290.6       288.6       286.2       283.3    
   2    302.7       302.7       302.5       302.3       302.0       301.6       301.2       300.6       300.1       299.7    
        299.4       299.1       299.0       298.9       298.8       298.6       298.4       298.0       297.4       296.5    
        295.3       293.9       292.4       290.6       288.6       286.2       283.3    
   3    302.7       302.6       302.5       302.3       302.0       301.6       301.2       300.6       300.1       299.7    
        299.4       299.1       299.0       298.9       298.8       298.6       298.3       297.9       297.4       296.4    
        295.3       293.9       292.4       290.6       288.6       286.2       283.3    
   4    302.7       302.6       302.5       302.3       302.0       301.6       301.1       300.6       300.1       299.6    
        299.3       299.1       298.9       298.8       298.7       298.6       298.3       297.9       297.3       296.4    
        295.2       293.9       292.4       290.6       288.6       286.2       283.3    
   5    302.7       302.6       302.5       302.2       301.9       301.6       301.1       300.6       300.0       299.6    
        299.3       299.0       298.9       298.8       298.7       298.5       298.3       297.9       297.3       296.4    
        295.2       293.9       292.3       290.6       288.5       286.1       283.3    
   6    302.7       302.6       302.4       302.2       301.9       301.5       301.1       300.5       300.0       299.5    
        299.2       299.0       298.8       298.7       298.6       298.5       298.2       297.8       297.2       296.3    
        295.2       293.8       292.3       290.6       288.5       286.1       283.3    
   7    302.7       302.6       302.4       302.2       301.9       301.5       301.0       300.5       299.9       299.5    
        299.2       298.9       298.8       298.7       298.6       298.4       298.2       297.8       297.2       296.3    
        295.1       293.8       292.3       290.5       288.5       286.1       283.3    
   8    302.6       302.6       302.4       302.2       301.9       301.5       301.0       300.4       299.9       299.4    
        299.1       298.9       298.7       298.6       298.5       298.4       298.1       297.7       297.1       296.2    
        295.1       293.8       292.3       290.5       288.5       286.1       283.3    
   9    302.6       302.6       302.4       302.2       301.8       301.4       301.0       300.4       299.8       299.4    
        299.1       298.8       298.7       298.6       298.5       298.3       298.1       297.7       297.1       296.2    
        295.1       293.8       292.3       290.5       288.5       286.1       283.3    
  10    302.6       302.5       302.4       302.1       301.8       301.4       300.9       300.4       299.8       299.4    
        299.1       298.8       298.7       298.6       298.5       298.3       298.0       297.7       297.1       296.2    
        295.1       293.7       292.2       290.5       288.5       286.1       283.3    
  11    302.6       302.5       302.4       302.1       301.8       301.4       300.9       300.4       299.8       299.4    
        299.1       298.8       298.7       298.6       298.5       298.3       298.0       297.6       297.1       296.2    
        295.0       293.7       292.2       290.5       288.5       286.1       283.3    
  12    302.6       302.5       302.4       302.1       301.8       301.4       300.9       300.4       299.8       299.4    
        299.0       298.8       298.6       298.5       298.4       298.3       298.0       297.6       297.1       296.2    
        295.0       293.7       292.2       290.5       288.5       286.1       283.3    
  13    302.6       302.5       302.4       302.1       301.8       301.4       300.9       300.4       299.8       299.4    
        299.0       298.8       298.6       298.5       298.4       298.3       298.0       297.6       297.1       296.2    
        295.0       293.7       292.2       290.5       288.5       286.1       283.3    
  14    302.6       302.5       302.4       302.1       301.8       301.4       300.9       300.4       299.8       299.4    
        299.0       298.8       298.6       298.5       298.4       298.3       298.0       297.6       297.1       296.2    
        295.0       293.7       292.2       290.5       288.5       286.1       283.3    
  15    302.6       302.5       302.4       302.1       301.8       301.4       300.9       300.4       299.8       299.4    
        299.0       298.8       298.6       298.5       298.4       298.3       298.0       297.6       297.1       296.2    
        295.0       293.7       292.2       290.5       288.5       286.1       283.3    
  16    302.6       302.5       302.4       302.1       301.8       301.4       300.9       300.4       299.8       299.4    
        299.0       298.8       298.6       298.5       298.4       298.3       298.0       297.6       297.1       296.2    
        295.0       293.7       292.2       290.5       288.5       286.1       283.3    
  17    302.6       302.5       302.4       302.1       301.8       301.4       300.9       300.4       299.8       299.4    
        299.1       298.8       298.7       298.6       298.5       298.3       298.0       297.6       297.1       296.2    
        295.0       293.7       292.2       290.5       288.5       286.1       283.3    
  18    302.6       302.5       302.4       302.1       301.8       301.4       300.9       300.4       299.8       299.4    
        299.1       298.8       298.7       298.6       298.5       298.3       298.0       297.7       297.1       296.2    
        295.1       293.7       292.2       290.5       288.5       286.1       283.3    
  19    302.6       302.6       302.4       302.2       301.8       301.4       301.0       300.4       299.8       299.4    
        299.1       298.8       298.7       298.6       298.5       298.3       298.1       297.7       297.1       296.2    
        295.1       293.8       292.3       290.5       288.5       286.1       283.3    
  20    302.6       302.6       302.4       302.2       301.9       301.5       301.0       300.4       299.9       299.4    
        299.1       298.9       298.7       298.6       298.5       298.4       298.1       297.7       297.1       296.2    
        295.1       293.8       292.3       290.5       288.5       286.1       283.3    
  21    302.7       302.6       302.4       302.2       301.9       301.5       301.0       300.5       299.9       299.5    
        299.2       298.9       298.8       298.7       298.6       298.4       298.2       297.8       297.2       296.3    
        295.1       293.8       292.3       290.5       288.5       286.1       283.3    
  22    302.7       302.6       302.4       302.2       301.9       301.5       301.1       300.5       300.0       299.5    
        299.2       299.0       298.8       298.7       298.6       298.5       298.2       297.8       297.2       296.3    
        295.2       293.8       292.3       290.6       288.5       286.1       283.3    
  23    302.7       302.6       302.5       302.2       301.9       301.6       301.1       300.6       300.0       299.6    
        299.3       299.0       298.9       298.8       298.7       298.5       298.3       297.9       297.3       296.4    
        295.2       293.9       292.3       290.6       288.5       286.1       283.3    
  24    302.7       302.6       302.5       302.3       302.0       301.6       301.1       300.6       300.1       299.6    
        299.3       299.1       298.9       298.8       298.7       298.6       298.3       297.9       297.3       296.4    
        295.2       293.9       292.4       290.6       288.6       286.2       283.3    
  25    302.7       302.6       302.5       302.3       302.0       301.6       301.2       300.6       300.1       299.7    
        299.4       299.1       299.0       298.9       298.8       298.6       298.3       297.9       297.4       296.4    
        295.3       293.9       292.4       290.6       288.6       286.2       283.3    
  26    302.7       302.7       302.5       302.3       302.0       301.6       301.2       300.6       300.1       299.7    
        299.4       299.1       299.0       298.9       298.8       298.6       298.4       298.0       297.4       296.5    
        295.3       293.9       292.4       290.6       288.6       286.2       283.3    
  27    302.7       302.7       302.5       302.3       302.0       301.6       301.2       300.7       300.1       299.7    
        299.4       299.2       299.0       298.9       298.8       298.6       298.4       298.0       297.4       296.5    
        295.3       294.0       292.4       290.6       288.6       286.2       283.3    



                       INITIAL HEAD FOR LAYER   2
 READING BINARY ON UNIT   65

            1           2           3           4           5           6           7           8           9          10
           11          12          13          14          15          16          17          18          19          20
           21          22          23          24          25          26          27
 ........................................................................................................................
   1    297.8       297.7       297.6       297.4       297.2       296.9       296.5       296.2       295.8       295.5    
        295.4       295.2       295.1       295.1       295.0       294.9       294.8       294.6       294.3       293.9    
        293.5       293.0       292.6       292.2       291.8       291.5       291.3    
   2    297.8       297.7       297.6       297.4       297.1       296.8       296.5       296.1       295.8       295.5    
        295.3       295.2       295.1       295.0       295.0       294.9       294.8       294.6       294.3       293.9    
        293.4       293.0       292.6       292.1       291.8       291.5       291.2    
   3    297.7       297.7       297.5       297.3       297.1       296.8       296.4       296.0       295.7       295.4    
        295.2       295.1       295.0       294.9       294.9       294.8       294.6       294.5       294.2       293.8    
        293.4       292.9       292.5       292.1       291.7       291.4       291.2    
   4    297.7       297.6       297.5       297.3       297.0       296.7       296.3       295.9       295.5       295.2    
        295.0       294.9       294.8       294.8       294.7       294.6       294.5       294.3       294.0       293.7    
        293.2       292.8       292.4       292.0       291.7       291.4       291.2    
   5    297.7       297.6       297.4       297.2       296.9       296.6       296.1       295.7       295.3       295.0    
        294.8       294.7       294.6       294.5       294.5       294.4       294.2       294.1       293.8       293.5    
        293.1       292.7       292.3       292.0       291.6       291.3       291.1    
   6    297.6       297.5       297.4       297.1       296.8       296.4       296.0       295.5       295.0       294.7    
        294.5       294.3       294.2       294.2       294.1       294.0       293.9       293.7       293.5       293.2    
        292.9       292.6       292.2       291.9       291.5       291.3       291.1    
   7    297.6       297.5       297.3       297.0       296.7       296.2       295.7       295.1       294.6       294.3    
        294.0       293.9       293.8       293.7       293.7       293.6       293.5       293.3       293.1       292.9    
        292.7       292.4       292.1       291.8       291.5       291.2       291.0    
   8    297.5       297.4       297.2       296.9       296.6       296.1       295.5       294.8       294.2       293.7    
        293.5       293.3       293.2       293.1       293.1       293.0       292.9       292.8       292.7       292.6    
        292.4       292.2       292.0       291.7       291.4       291.2       291.0    
   9    297.5       297.4       297.2       296.9       296.5       295.9       295.3       294.5       293.7       293.2    
        292.8       292.6       292.5       292.5       292.4       292.4       292.3       292.2       292.2       292.3    
        292.2       292.1       291.9       291.6       291.4       291.1       290.9    
  10    297.5       297.4       297.2       296.8       296.4       295.9       295.2       294.3       293.4       292.8    
        292.4       292.1       292.0       292.0       291.9       291.8       291.8       291.8       291.9       292.1    
        292.1       292.0       291.8       291.6       291.3       291.1       290.9    
  11    297.5       297.4       297.1       296.8       296.4       295.8       295.1       294.2       293.3       292.5    
        292.1       291.8       291.7       291.6       291.6       291.5       291.5       291.6       291.8       292.0    
        292.1       292.0       291.8       291.6       291.3       291.1       290.9    
  12    297.4       297.3       297.1       296.8       296.4       295.8       295.1       294.2       293.2       292.4    
        291.9       291.7       291.5       291.5       291.4       291.4       291.4       291.5       291.7       291.9    
        292.0       292.0       291.8       291.6       291.3       291.1       290.9    
  13    297.4       297.3       297.1       296.8       296.4       295.8       295.1       294.2       293.2       292.4    
        291.9       291.6       291.5       291.4       291.4       291.3       291.3       291.5       291.7       291.9    
        292.0       292.0       291.8       291.6       291.3       291.1       290.9    
  14    297.4       297.3       297.1       296.8       296.4       295.8       295.1       294.2       293.2       292.4    
        291.9       291.6       291.5       291.4       291.3       291.3       291.3       291.5       291.7       291.9    
        292.0       292.0       291.8       291.6       291.3       291.1       290.9    
  15    297.4       297.3       297.1       296.8       296.4       295.8       295.1       294.2       293.2       292.4    
        291.9       291.6       291.5       291.4       291.4       291.3       291.3       291.5       291.7       291.9    
        292.0       292.0       291.8       291.6       291.3       291.1       290.9    
  16    297.4       297.3       297.1       296.8       296.4       295.8       295.1       294.2       293.2       292.4    
        291.9       291.7       291.5       291.5       291.4       291.4       291.4       291.5       291.7       291.9    
        292.0       292.0       291.8       291.6       291.3       291.1       290.9    
  17    297.5       297.3       297.1       296.8       296.4       295.8       295.1       294.2       293.3       292.5    
        292.1       291.8       291.7       291.6       291.6       291.5       291.5       291.6       291.8       292.0    
        292.1       292.0       291.8       291.6       291.3       291.1       290.9    
  18    297.5       297.4       297.2       296.8       296.4       295.9       295.2       294.3       293.4       292.8    
        292.4       292.1       292.0       292.0       291.9       291.8       291.8       291.8       291.9       292.1    
        292.1       292.0       291.8       291.6       291.3       291.1       290.9    
  19    297.5       297.4       297.2       296.9       296.5       295.9       295.3       294.5       293.7       293.2    
        292.8       292.6       292.5       292.5       292.4       292.4       292.3       292.2       292.2       292.3    
        292.2       292.1       291.9       291.6       291.4       291.1       290.9    
  20    297.5       297.4       297.2       296.9       296.6       296.1       295.5       294.8       294.2       293.7    
        293.5       293.3       293.2       293.1       293.1       293.0       292.9       292.8       292.7       292.6    
        292.4       292.2       292.0       291.7       291.4       291.2       291.0    
  21    297.6       297.5       297.3       297.0       296.7       296.2       295.7       295.1       294.6       294.3    
        294.0       293.9       293.8       293.7       293.7       293.6       293.5       293.3       293.1       292.9    
        292.7       292.4       292.1       291.8       291.5       291.2       291.0    
  22    297.6       297.5       297.4       297.1       296.8       296.4       296.0       295.5       295.0       294.7    
        294.5       294.3       294.2       294.2       294.1       294.0       293.9       293.7       293.5       293.2    
        292.9       292.6       292.2       291.9       291.5       291.3       291.1    
  23    297.7       297.6       297.4       297.2       296.9       296.6       296.1       295.7       295.3       295.0    
        294.8       294.7       294.6       294.5       294.5       294.4       294.2       294.1       293.8       293.5    
        293.1       292.7       292.3       292.0       291.6       291.3       291.1    
  24    297.7       297.6       297.5       297.3       297.0       296.7       296.3       295.9       295.5       295.2    
        295.0       294.9       294.8       294.8       294.7       294.6       294.5       294.3       294.0       293.7    
        293.2       292.8       292.4       292.0       291.7       291.4       291.2    
  25    297.7       297.7       297.5       297.3       297.1       296.8       296.4       296.0       295.7       295.4    
        295.2       295.1       295.0       294.9       294.9       294.8       294.6       294.5       294.2       293.8    
        293.4       292.9       292.5       292.1       291.7       291.4       291.2    
  26    297.8       297.7       297.6       297.4       297.1       296.8       296.5       296.1       295.8       295.5    
        295.3       295.2       295.1       295.0       295.0       294.9       294.8       294.6       294.3       293.9    
        293.4       293.0       292.6       292.1       291.8       291.5       291.2    
  27    297.8       297.7       297.6       297.4       297.2       296.9       296.5       296.2       295.8       295.5    
        295.4       295.2       295.1       295.1       295.0       294.9       294.8       294.6       294.3       293.9    
        293.5       293.0       292.6       292.2       291.8       291.5       291.3    



                       INITIAL HEAD FOR LAYER   3
 READING BINARY ON UNIT   65

            1           2           3           4           5           6           7           8           9          10
           11          12          13          14          15          16          17          18          19          20
           21          22          23          24          25          26          27
 ........................................................................................................................
   1    297.6       297.5       297.4       297.2       297.0       296.7       296.4       296.0       295.7       295.4    
        295.2       295.1       295.0       294.9       294.9       294.8       294.7       294.5       294.2       293.8    
        293.4       293.0       292.6       292.2       291.9       291.7       291.5    
   2    297.6       297.5       297.4       297.2       297.0       296.7       296.3       296.0       295.6       295.3    
        295.2       295.0       294.9       294.9       294.8       294.8       294.6       294.4       294.2       293.8    
        293.4       293.0       292.6       292.2       291.9       291.6       291.5    
   3    297.6       297.5       297.4       297.2       296.9       296.6       296.2       295.9       295.5       295.2    
        295.1       294.9       294.8       294.8       294.7       294.6       294.5       294.3       294.1       293.7    
        293.3       292.9       292.5       292.2       291.9       291.6       291.5    
   4    297.5       297.4       297.3       297.1       296.8       296.5       296.1       295.7       295.3       295.1    
        294.9       294.7       294.7       294.6       294.6       294.5       294.3       294.2       293.9       293.6    
        293.2       292.8       292.4       292.1       291.8       291.6       291.4    
   5    297.5       297.4       297.2       297.0       296.7       296.4       296.0       295.5       295.1       294.8    
        294.6       294.5       294.4       294.4       294.3       294.2       294.1       293.9       293.7       293.4    
        293.0       292.7       292.3       292.0       291.7       291.5       291.4    
   6    297.4       297.3       297.2       296.9       296.6       296.2       295.8       295.3       294.8       294.5    
        294.3       294.1       294.1       294.0       294.0       293.9       293.7       293.6       293.4       293.1    
        292.8       292.5       292.2       291.9       291.7       291.4       291.3    
   7    297.4       297.3       297.1       296.8       296.5       296.0       295.5       294.9       294.4       294.0    
        293.8       293.7       293.6       293.5       293.5       293.4       293.3       293.1       293.0       292.8    
        292.6       292.3       292.1       291.8       291.6       291.4       291.3    
   8    297.3       297.2       297.0       296.7       296.4       295.9       295.3       294.6       293.9       293.4    
        293.1       293.0       292.9       292.8       292.8       292.7       292.6       292.5       292.5       292.4    
        292.3       292.2       292.0       291.7       291.5       291.3       291.2    
   9    297.3       297.2       297.0       296.7       296.3       295.7       295.0       294.2       293.3       292.7    
        292.3       292.1       292.0       291.9       291.8       291.8       291.8       291.8       291.9       292.0    
        292.1       292.0       291.9       291.7       291.5       291.3       291.2    
  10    297.3       297.2       297.0       296.6       296.2       295.6       294.9       294.0       292.9       292.1    
        291.5       291.1       291.0       290.9       290.9       290.9       290.9       291.2       291.5       291.8    
        292.0       291.9       291.8       291.6       291.5       291.3       291.2    
  11    297.3       297.2       296.9       296.6       296.2       295.6       294.9       293.9       292.7       291.7    
        290.8       290.3       290.1       290.0       290.0       290.1       290.3       290.7       291.3       291.7    
        291.9       291.9       291.8       291.6       291.4       291.3       291.2    
  12    297.3       297.2       296.9       296.6       296.2       295.6       294.8       293.8       292.6       291.4    
        290.5       289.7       289.4       289.3       289.3       289.5       289.9       290.5       291.2       291.7    
        291.9       291.9       291.8       291.6       291.4       291.3       291.2    
  13    297.3       297.2       296.9       296.6       296.2       295.6       294.8       293.8       292.6       291.4    
        290.3       289.5       289.1       288.9       289.0       289.2       289.8       290.5       291.1       291.7    
        291.9       291.9       291.8       291.6       291.4       291.3       291.2    
  14    297.3       297.2       296.9       296.6       296.2       295.6       294.8       293.8       292.6       291.4    
        290.3       289.5       289.0       288.8       288.9       289.2       289.8       290.5       291.1       291.7    
        291.9       291.9       291.8       291.6       291.4       291.3       291.2    
  15    297.3       297.2       296.9       296.6       296.2       295.6       294.8       293.8       292.6       291.4    
        290.3       289.5       289.1       288.9       289.0       289.2       289.8       290.5       291.1       291.7    
        291.9       291.9       291.8       291.6       291.4       291.3       291.2    
  16    297.3       297.2       296.9       296.6       296.2       295.6       294.8       293.8       292.6       291.4    
        290.5       289.7       289.4       289.3       289.3       289.5       289.9       290.5       291.2       291.7    
        291.9       291.9       291.8       291.6       291.4       291.3       291.2    
  17    297.3       297.2       296.9       296.6       296.2       295.6       294.9       293.9       292.7       291.7    
        290.8       290.3       290.1       290.0       290.0       290.1       290.3       290.7       291.3       291.7    
        291.9       291.9       291.8       291.6       291.4       291.3       291.2    
  18    297.3       297.2       297.0       296.6       296.2       295.6       294.9       294.0       292.9       292.1    
        291.5       291.1       291.0       290.9       290.9       290.9       290.9       291.2       291.5       291.8    
        292.0       291.9       291.8       291.6       291.5       291.3       291.2    
  19    297.3       297.2       297.0       296.7       296.3       295.7       295.0       294.2       293.3       292.7    
        292.3       292.1       292.0       291.9       291.8       291.8       291.8       291.8       291.9       292.0    
        292.1       292.0       291.9       291.7       291.5       291.3       291.2    
  20    297.3       297.2       297.0       296.7       296.4       295.9       295.3       294.6       293.9       293.4    
        293.1       293.0       292.9       292.8       292.8       292.7       292.6       292.5       292.5       292.4    
        292.3       292.2       292.0       291.7       291.5       291.3       291.2    
  21    297.4       297.3       297.1       296.8       296.5       296.0       295.5       294.9       294.4       294.0    
        293.8       293.7       293.6       293.5       293.5       293.4       293.3       293.1       293.0       292.8    
        292.6       292.3       292.1       291.8       291.6       291.4       291.3    
  22    297.4       297.3       297.2       296.9       296.6       296.2       295.8       295.3       294.8       294.5    
        294.3       294.1       294.1       294.0       294.0       293.9       293.7       293.6       293.4       293.1    
        292.8       292.5       292.2       291.9       291.7       291.4       291.3    
  23    297.5       297.4       297.2       297.0       296.7       296.4       296.0       295.5       295.1       294.8    
        294.6       294.5       294.4       294.4       294.3       294.2       294.1       293.9       293.7       293.4    
        293.0       292.7       292.3       292.0       291.7       291.5       291.4    
  24    297.5       297.4       297.3       297.1       296.8       296.5       296.1       295.7       295.3       295.1    
        294.9       294.7       294.7       294.6       294.6       294.5       294.3       294.2       293.9       293.6    
        293.2       292.8       292.4       292.1       291.8       291.6       291.4    
  25    297.6       297.5       297.4       297.2       296.9       296.6       296.2       295.9       295.5       295.2    
        295.1       294.9       294.8       294.8       294.7       294.6       294.5       294.3       294.1       293.7    
        293.3       292.9       292.5       292.2       291.9       291.6       291.5    
  26    297.6       297.5       297.4       297.2       297.0       296.7       296.3       296.0       295.6       295.3    
        295.2       295.0       294.9       294.9       294.8       294.8       294.6       294.4       294.2       293.8    
        293.4       293.0       292.6       292.2       291.9       291.6       291.5    
  27    297.6       297.5       297.4       297.2       297.0       296.7       296.4       296.0       295.7       295.4    
        295.2       295.1       295.0       294.9       294.9       294.8       294.7       294.5       294.2       293.8    
        293.4       293.0       292.6       292.2       291.9       291.7       291.5    



                       INITIAL HEAD FOR LAYER   4
 READING BINARY ON UNIT   65

            1           2           3           4           5           6           7           8           9          10
           11          12          13          14          15          16          17          18          19          20
           21          22          23          24          25          26          27
 ........................................................................................................................
   1    297.5       297.4       297.3       297.1       296.9       296.6       296.2       295.9       295.5       295.3    
        295.1       295.0       294.9       294.9       294.8       294.7       294.6       294.4       294.1       293.8    
        293.4       293.0       292.6       292.3       292.0       291.8       291.7    
   2    297.5       297.4       297.3       297.1       296.8       296.5       296.2       295.8       295.5       295.2    
        295.1       294.9       294.8       294.8       294.7       294.7       294.5       294.3       294.1       293.7    
        293.3       292.9       292.6       292.3       292.0       291.8       291.6    
   3    297.4       297.4       297.2       297.0       296.8       296.5       296.1       295.7       295.4       295.1    
        294.9       294.8       294.7       294.7       294.6       294.5       294.4       294.2       294.0       293.6    
        293.3       292.9       292.5       292.2       291.9       291.7       291.6    
   4    297.4       297.3       297.2       297.0       296.7       296.4       296.0       295.6       295.2       295.0    
        294.8       294.6       294.6       294.5       294.5       294.4       294.2       294.1       293.8       293.5    
        293.1       292.8       292.4       292.1       291.9       291.7       291.6    
   5    297.3       297.3       297.1       296.9       296.6       296.2       295.8       295.4       295.0       294.7    
        294.5       294.4       294.3       294.2       294.2       294.1       294.0       293.8       293.6       293.3    
        293.0       292.6       292.3       292.1       291.8       291.6       291.5    
   6    297.3       297.2       297.0       296.8       296.5       296.1       295.6       295.1       294.7       294.4    
        294.2       294.0       293.9       293.9       293.8       293.7       293.6       293.5       293.3       293.0    
        292.7       292.5       292.2       292.0       291.7       291.6       291.5    
   7    297.2       297.1       297.0       296.7       296.3       295.9       295.4       294.8       294.2       293.9    
        293.6       293.5       293.4       293.3       293.3       293.2       293.1       293.0       292.8       292.7    
        292.5       292.3       292.1       291.9       291.7       291.5       291.4    
   8    297.2       297.1       296.9       296.6       296.2       295.7       295.1       294.4       293.7       293.2    
        292.9       292.7       292.6       292.5       292.5       292.4       292.3       292.3       292.3       292.3    
        292.2       292.1       292.0       291.8       291.6       291.4       291.4    
   9    297.1       297.0       296.8       296.5       296.1       295.6       294.9       294.0       293.0       292.2    
        291.7       291.4       291.3       291.2       291.2       291.2       291.2       291.4       291.6       291.9    
        292.0       292.0       291.9       291.7       291.5       291.4       291.3    
  10    297.1       297.0       296.8       296.5       296.1       295.5       294.7       293.7       292.5       291.3    
        290.3       289.6       289.4       289.3       289.3       289.4       289.7       290.4       291.1       291.6    
        291.9       291.9       291.8       291.7       291.5       291.4       291.3    
  11    297.1       297.0       296.8       296.5       296.1       295.5       294.7       293.6       292.1       290.5    
        288.7       287.1       286.4       286.2       286.3       286.9       288.1       289.6       290.7       291.5    
        291.8       291.9       291.8       291.7       291.5       291.4       291.3    
  12    297.1       297.0       296.8       296.5       296.0       295.4       294.6       293.5       292.0       289.9    
        287.3       283.9       281.5       280.8       281.4       283.7       286.7       289.0       290.6       291.4    
        291.8       291.8       291.8       291.7       291.5       291.4       291.3    
  13    297.1       297.0       296.8       296.5       296.0       295.4       294.6       293.5       291.9       289.8    
        286.6       281.6       275.2       270.9       275.1       281.3       286.1       288.9       290.5       291.4    
        291.8       291.8       291.8       291.7       291.5       291.4       291.3    
  14    297.1       297.0       296.8       296.5       296.0       295.4       294.6       293.5       291.9       289.7    
        286.5       280.9       271.0       251.2       270.9       280.6       286.0       288.8       290.5       291.4    
        291.8       291.8       291.8       291.7       291.5       291.4       291.3    
  15    297.1       297.0       296.8       296.5       296.0       295.4       294.6       293.5       291.9       289.8    
        286.6       281.6       275.2       270.9       275.1       281.3       286.1       288.9       290.5       291.4    
        291.8       291.8       291.8       291.7       291.5       291.4       291.3    
  16    297.1       297.0       296.8       296.5       296.0       295.4       294.6       293.5       292.0       289.9    
        287.3       283.9       281.5       280.8       281.4       283.7       286.7       289.0       290.6       291.4    
        291.8       291.8       291.8       291.7       291.5       291.4       291.3    
  17    297.1       297.0       296.8       296.5       296.1       295.5       294.7       293.6       292.1       290.5    
        288.7       287.1       286.4       286.2       286.3       286.9       288.1       289.6       290.7       291.5    
        291.8       291.9       291.8       291.7       291.5       291.4       291.3    
  18    297.1       297.0       296.8       296.5       296.1       295.5       294.7       293.7       292.5       291.3    
        290.3       289.6       289.4       289.3       289.3       289.4       289.7       290.4       291.1       291.6    
        291.9       291.9       291.8       291.7       291.5       291.4       291.3    
  19    297.1       297.0       296.8       296.5       296.1       295.6       294.9       294.0       293.0       292.2    
        291.7       291.4       291.3       291.2       291.2       291.2       291.2       291.4       291.6       291.9    
        292.0       292.0       291.9       291.7       291.5       291.4       291.3    
  20    297.2       297.1       296.9       296.6       296.2       295.7       295.1       294.4       293.7       293.2    
        292.9       292.7       292.6       292.5       292.5       292.4       292.3       292.3       292.3       292.3    
        292.2       292.1       292.0       291.8       291.6       291.4       291.4    
  21    297.2       297.1       297.0       296.7       296.3       295.9       295.4       294.8       294.2       293.9    
        293.6       293.5       293.4       293.3       293.3       293.2       293.1       293.0       292.8       292.7    
        292.5       292.3       292.1       291.9       291.7       291.5       291.4    
  22    297.3       297.2       297.0       296.8       296.5       296.1       295.6       295.1       294.7       294.4    
        294.2       294.0       293.9       293.9       293.8       293.7       293.6       293.5       293.3       293.0    
        292.7       292.5       292.2       292.0       291.7       291.6       291.5    
  23    297.3       297.3       297.1       296.9       296.6       296.2       295.8       295.4       295.0       294.7    
        294.5       294.4       294.3       294.2       294.2       294.1       294.0       293.8       293.6       293.3    
        293.0       292.6       292.3       292.1       291.8       291.6       291.5    
  24    297.4       297.3       297.2       297.0       296.7       296.4       296.0       295.6       295.2       295.0    
        294.8       294.6       294.6       294.5       294.5       294.4       294.2       294.1       293.8       293.5    
        293.1       292.8       292.4       292.1       291.9       291.7       291.6    
  25    297.4       297.4       297.2       297.0       296.8       296.5       296.1       295.7       295.4       295.1    
        294.9       294.8       294.7       294.7       294.6       294.5       294.4       294.2       294.0       293.6    
        293.3       292.9       292.5       292.2       291.9       291.7       291.6    
  26    297.5       297.4       297.3       297.1       296.8       296.5       296.2       295.8       295.5       295.2    
        295.1       294.9       294.8       294.8       294.7       294.7       294.5       294.3       294.1       293.7    
        293.3       292.9       292.6       292.3       292.0       291.8       291.6    
  27    297.5       297.4       297.3       297.1       296.9       296.6       296.2       295.9       295.5       295.3    
        295.1       295.0       294.9       294.9       294.8       294.7       294.6       294.4       294.1       293.8    
        293.4       293.0       292.6       292.3       292.0       291.8       291.7    



                       INITIAL HEAD FOR LAYER   5
 READING BINARY ON UNIT   65

            1           2           3           4           5           6           7           8           9          10
           11          12          13          14          15          16          17          18          19          20
           21          22          23          24          25          26          27
 ........................................................................................................................
   1    297.4       297.4       297.2       297.0       296.8       296.5       296.2       295.8       295.5       295.2    
        295.1       294.9       294.9       294.8       294.8       294.7       294.5       294.4       294.1       293.7    
        293.4       293.0       292.6       292.3       292.0       291.8       291.7    
   2    297.4       297.3       297.2       297.0       296.8       296.5       296.2       295.8       295.4       295.2    
        295.0       294.9       294.8       294.7       294.7       294.6       294.5       294.3       294.1       293.7    
        293.3       292.9       292.6       292.3       292.0       291.8       291.7    
   3    297.4       297.3       297.2       297.0       296.7       296.4       296.1       295.7       295.3       295.1    
        294.9       294.8       294.7       294.6       294.6       294.5       294.4       294.2       293.9       293.6    
        293.2       292.9       292.5       292.2       292.0       291.8       291.7    
   4    297.3       297.3       297.1       296.9       296.6       296.3       295.9       295.5       295.2       294.9    
        294.7       294.6       294.5       294.5       294.4       294.3       294.2       294.0       293.8       293.5    
        293.1       292.8       292.4       292.2       291.9       291.7       291.6    
   5    297.3       297.2       297.1       296.8       296.5       296.2       295.8       295.3       294.9       294.6    
        294.5       294.3       294.2       294.2       294.1       294.1       293.9       293.8       293.5       293.2    
        292.9       292.6       292.3       292.1       291.9       291.7       291.6    
   6    297.2       297.1       297.0       296.7       296.4       296.0       295.6       295.1       294.6       294.3    
        294.1       293.9       293.9       293.8       293.8       293.7       293.6       293.4       293.2       293.0    
        292.7       292.5       292.2       292.0       291.8       291.6       291.5    
   7    297.2       297.1       296.9       296.6       296.3       295.8       295.3       294.7       294.2       293.8    
        293.6       293.4       293.3       293.3       293.2       293.1       293.0       292.9       292.8       292.6    
        292.5       292.3       292.1       291.9       291.7       291.6       291.5    
   8    297.1       297.0       296.8       296.5       296.1       295.6       295.0       294.3       293.6       293.1    
        292.8       292.6       292.5       292.5       292.4       292.3       292.3       292.2       292.2       292.2    
        292.2       292.1       292.0       291.8       291.6       291.5       291.4    
   9    297.1       297.0       296.8       296.5       296.1       295.5       294.8       293.9       292.9       292.2    
        291.7       291.5       291.4       291.3       291.3       291.2       291.2       291.3       291.5       291.8    
        291.9       291.9       291.9       291.7       291.6       291.5       291.4    
  10    297.1       297.0       296.8       296.4       296.0       295.4       294.6       293.6       292.4       291.4    
        290.7       290.4       290.2       290.1       290.1       290.1       290.2       290.5       291.0       291.5    
        291.8       291.9       291.8       291.7       291.6       291.4       291.4    
  11    297.1       297.0       296.8       296.4       296.0       295.4       294.6       293.5       292.2       290.9    
        290.0       289.4       289.1       289.1       289.0       289.1       289.4       290.0       290.8       291.4    
        291.7       291.8       291.8       291.7       291.6       291.4       291.4    
  12    297.1       297.0       296.7       296.4       296.0       295.4       294.6       293.4       292.0       290.6    
        289.5       288.7       288.3       288.2       288.2       288.4       289.0       289.8       290.6       291.4    
        291.7       291.8       291.8       291.7       291.5       291.4       291.4    
  13    297.1       297.0       296.7       296.4       296.0       295.4       294.5       293.4       292.0       290.6    
        289.3       288.4       288.0       287.8       287.9       288.2       288.8       289.7       290.6       291.3    
        291.7       291.8       291.8       291.7       291.5       291.4       291.4    
  14    297.1       297.0       296.7       296.4       296.0       295.4       294.5       293.4       292.0       290.5    
        289.3       288.4       287.9       287.7       287.8       288.1       288.8       289.7       290.6       291.3    
        291.7       291.8       291.8       291.7       291.5       291.4       291.4    
  15    297.1       297.0       296.7       296.4       296.0       295.4       294.5       293.4       292.0       290.6    
        289.3       288.4       288.0       287.8       287.9       288.2       288.8       289.7       290.6       291.3    
        291.7       291.8       291.8       291.7       291.5       291.4       291.4    
  16    297.1       297.0       296.7       296.4       296.0       295.4       294.6       293.4       292.0       290.6    
        289.5       288.7       288.3       288.2       288.2       288.4       289.0       289.8       290.6       291.4    
        291.7       291.8       291.8       291.7       291.5       291.4       291.4    
  17    297.1       297.0       296.8       296.4       296.0       295.4       294.6       293.5       292.2       290.9    
        290.0       289.4       289.1       289.1       289.0       289.1       289.4       290.0       290.8       291.4    
        291.7       291.8       291.8       291.7       291.6       291.4       291.4    
  18    297.1       297.0       296.8       296.4       296.0       295.4       294.6       293.6       292.4       291.4    
        290.7       290.4       290.2       290.1       290.1       290.1       290.2       290.5       291.0       291.5    
        291.8       291.9       291.8       291.7       291.6       291.4       291.4    
  19    297.1       297.0       296.8       296.5       296.1       295.5       294.8       293.9       292.9       292.2    
        291.7       291.5       291.4       291.3       291.3       291.2       291.2       291.3       291.5       291.8    
        291.9       291.9       291.9       291.7       291.6       291.5       291.4    
  20    297.1       297.0       296.8       296.5       296.1       295.6       295.0       294.3       293.6       293.1    
        292.8       292.6       292.5       292.5       292.4       292.3       292.3       292.2       292.2       292.2    
        292.2       292.1       292.0       291.8       291.6       291.5       291.4    
  21    297.2       297.1       296.9       296.6       296.3       295.8       295.3       294.7       294.2       293.8    
        293.6       293.4       293.3       293.3       293.2       293.1       293.0       292.9       292.8       292.6    
        292.5       292.3       292.1       291.9       291.7       291.6       291.5    
  22    297.2       297.1       297.0       296.7       296.4       296.0       295.6       295.1       294.6       294.3    
        294.1       293.9       293.9       293.8       293.8       293.7       293.6       293.4       293.2       293.0    
        292.7       292.5       292.2       292.0       291.8       291.6       291.5    
  23    297.3       297.2       297.1       296.8       296.5       296.2       295.8       295.3       294.9       294.6    
        294.5       294.3       294.2       294.2       294.1       294.1       293.9       293.8       293.5       293.2    
        292.9       292.6       292.3       292.1       291.9       291.7       291.6    
  24    297.3       297.3       297.1       296.9       296.6       296.3       295.9       295.5       295.2       294.9    
        294.7       294.6       294.5       294.5       294.4       294.3       294.2       294.0       293.8       293.5    
        293.1       292.8       292.4       292.2       291.9       291.7       291.6    
  25    297.4       297.3       297.2       297.0       296.7       296.4       296.1       295.7       295.3       295.1    
        294.9       294.8       294.7       294.6       294.6       294.5       294.4       294.2       293.9       293.6    
        293.2       292.9       292.5       292.2       292.0       291.8       291.7    
  26    297.4       297.3       297.2       297.0       296.8       296.5       296.2       295.8       295.4       295.2    
        295.0       294.9       294.8       294.7       294.7       294.6       294.5       294.3       294.1       293.7    
        293.3       292.9       292.6       292.3       292.0       291.8       291.7    
  27    297.4       297.4       297.2       297.0       296.8       296.5       296.2       295.8       295.5       295.2    
        295.1       294.9       294.9       294.8       294.8       294.7       294.5       294.4       294.1       293.7    
        293.4       293.0       292.6       292.3       292.0       291.8       291.7    

 OUTPUT CONTROL IS SPECIFIED ONLY AT TIME STEPS FOR WHICH OUTPUT IS DESIRED
 COMPACT CELL-BY-CELL BUDGET FILES WILL BE WRITTEN
 AUXILIARY DATA WILL BE SAVED IN CELL-BY-CELL BUDGET FILES
 HEAD PRINT FORMAT CODE IS   4    DRAWDOWN PRINT FORMAT CODE IS   4
 HEADS WILL BE SAVED ON UNIT   32    DRAWDOWNS WILL BE SAVED ON UNIT    0

 BCF -- BLOCK-CENTERED FLOW PACKAGE, VERSION 7, 5/2/2005
         INPUT READ FROM UNIT 11
 TRANSIENT SIMULATION
 CELL-BY-CELL FLOWS WILL BE SAVED ON UNIT 34
 HEAD AT CELLS THAT CONVERT TO DRY=  0.10000E+31
 WETTING CAPABILITY IS NOT ACTIVE
      LAYER  LAYER-TYPE CODE     INTERBLOCK T
      --------------------------------------------
         1            1          0 -- HARMONIC    
         2            0          0 -- HARMONIC    
         3            0          0 -- HARMONIC    
         4            0          0 -- HARMONIC    
         5            0          0 -- HARMONIC    

 COLUMN TO ROW ANISOTROPY =   1.00000    

     PRIMARY STORAGE COEF =  0.200000     FOR LAYER   1

    HYD. COND. ALONG ROWS =   50.0000     FOR LAYER   1

 VERT HYD COND /THICKNESS =  5.000000E-04 FOR LAYER   1

     PRIMARY STORAGE COEF =  1.000000E-04 FOR LAYER   2

     TRANSMIS. ALONG ROWS =   1250.00     FOR LAYER   2

 VERT HYD COND /THICKNESS =  1.000000E-02 FOR LAYER   2

     PRIMARY STORAGE COEF =  1.000000E-04 FOR LAYER   3

     TRANSMIS. ALONG ROWS =   1250.00     FOR LAYER   3

 VERT HYD COND /THICKNESS =  1.000000E-02 FOR LAYER   3

     PRIMARY STORAGE COEF =  1.000000E-04 FOR LAYER   4

     TRANSMIS. ALONG ROWS =   1250.00     FOR LAYER   4

 VERT HYD COND /THICKNESS =  1.000000E-02 FOR LAYER   4

     PRIMARY STORAGE COEF =  1.000000E-04 FOR LAYER   5

     TRANSMIS. ALONG ROWS =   1250.00     FOR LAYER   5

 WEL -- WELL PACKAGE, VERSION 7, 5/2/2005 INPUT READ FROM UNIT   14
 No named parameters
 MAXIMUM OF      2 ACTIVE WELLS AT ONE TIME
 CELL-BY-CELL FLOWS WILL BE SAVED ON UNIT   34
 AUXILIARY WELL VARIABLE: IFACE           


     0 Well parameters

 RIV -- RIVER PACKAGE, VERSION 7, 5/2/2005 INPUT READ FROM UNIT   16
 No named parameters
 MAXIMUM OF     27 ACTIVE RIVER REACHES AT ONE TIME
 CELL-BY-CELL FLOWS WILL BE SAVED ON UNIT   34
 AUXILIARY RIVER VARIABLE: IFACE           


     0 River parameters

 RCH -- RECHARGE PACKAGE, VERSION 7, 5/2/2005 INPUT READ FROM UNIT   13
 No named parameters
 OPTION 1 -- RECHARGE TO TOP LAYER
 CELL-BY-CELL FLOWS WILL BE SAVED ON UNIT   34


     0 Recharge parameters

 PCG -- CONJUGATE-GRADIENT SOLUTION PACKAGE, VERSION 7, 5/2/2005
 MAXIMUM OF     15 CALLS OF SOLUTION ROUTINE
 MAXIMUM OF     20 INTERNAL ITERATIONS PER CALL TO SOLUTION ROUTINE
 MATRIX PRECONDITIONING TYPE :    1



                                    SOLUTION BY THE CONJUGATE-GRADIENT METHOD
                                   -------------------------------------------
                    MAXIMUM NUMBER OF CALLS TO PCG ROUTINE =       15
                        MAXIMUM ITERATIONS PER CALL TO PCG =       20
                               MATRIX PRECONDITIONING TYPE =        1
        RELAXATION FACTOR (ONLY USED WITH PRECOND. TYPE 1) =    0.10000E+01
 PARAMETER OF POLYNOMIAL PRECOND. = 2 (2) OR IS CALCULATED :        2
                         HEAD CHANGE CRITERION FOR CLOSURE =    0.10000E-03
                     RESIDUAL CHANGE CRITERION FOR CLOSURE =    0.10000E+04
            PCG HEAD AND RESIDUAL CHANGE PRINTOUT INTERVAL =        1
     PRINTING FROM SOLVER IS LIMITED(1) OR SUPPRESSED (>1) =        0
                                         DAMPING PARAMETER =    0.10000E+01
1
                            STRESS PERIOD NO.    1, LENGTH =   182500.0    
                            -----------------------------------------------

                              NUMBER OF TIME STEPS =     1

                               MULTIPLIER FOR DELT =     1.000

                            INITIAL TIME STEP SIZE =   182500.0    

 WELL NO.  LAYER   ROW   COL   STRESS RATE         IFACE           
 ------------------------------------------------------------------
      1      4     14     14     -0.8000E+05       0.000    

      1 WELL 

 REACH NO.  LAYER   ROW   COL     STAGE      CONDUCTANCE     BOTTOM EL.         IFACE           
 -----------------------------------------------------------------------------------------------
      1      1      1     27       280.0           3200.           275.0           6.000    
      2      1      2     27       280.0           3200.           275.0           6.000    
      3      1      3     27       280.0           3200.           275.0           6.000    
      4      1      4     27       280.0           3200.           275.0           6.000    
      5      1      5     27       280.0           3200.           275.0           6.000    
      6      1      6     27       280.0           3200.           275.0           6.000    
      7      1      7     27       280.0           3200.           275.0           6.000    
      8      1      8     27       280.0           3200.           275.0           6.000    
      9      1      9     27       280.0           2400.           275.0           6.000    
     10      1     10     27       280.0           1600.           275.0           6.000    
     11      1     11     27       280.0           1200.           275.0           6.000    
     12      1     12     27       280.0           800.0           275.0           6.000    
     13      1     13     27       280.0           480.0           275.0           6.000    
     14      1     14     27       280.0           320.0           275.0           6.000    
     15      1     15     27       280.0           480.0           275.0           6.000    
     16      1     16     27       280.0           800.0           275.0           6.000    
     17      1     17     27       280.0           1200.           275.0           6.000    
     18      1     18     27       280.0           1600.           275.0           6.000    
     19      1     19     27       280.0           2400.           275.0           6.000    
     20      1     20     27       280.0           3200.           275.0           6.000    
     21      1     21     27       280.0           3200.           275.0           6.000    
     22      1     22     27       280.0           3200.           275.0           6.000    
     23      1     23     27       280.0           3200.           275.0           6.000    
     24      1     24     27       280.0           3200.           275.0           6.000    
     25      1     25     27       280.0           3200.           275.0           6.000    
     26      1     26     27       280.0           3200.           275.0           6.000    
     27      1     27     27       280.0           3200.           275.0           6.000    

     27 RIVER REACHES

                 RECHARGE =  4.500000E-03
 
 SOLVING FOR HEAD 


     2 CALLS TO PCG ROUTINE FOR TIME STEP   1 IN STRESS PERIOD    1
     6 TOTAL ITERATIONS

 MAXIMUM HEAD CHANGE FOR EACH ITERATION (1 INDICATES THE FIRST INNER ITERATION):

    HEAD CHANGE    HEAD CHANGE    HEAD CHANGE    HEAD CHANGE    HEAD CHANGE 
   LAYER,ROW,COL  LAYER,ROW,COL  LAYER,ROW,COL  LAYER,ROW,COL  LAYER,ROW,COL
 ---------------------------------------------------------------------------
  1 -0.1067E-03  0  0.2082E-03  0  0.1407E-03  0  0.1026E-03  0 -0.7998E-04
   (  4, 25,  1)  (  1, 27,  1)  (  5, 27,  2)  (  5,  4, 10)  (  4, 10, 21)
  1 -0.5333E-04
   (  5,  4, 23)

 MAXIMUM RESIDUAL FOR EACH ITERATION (1 INDICATES THE FIRST INNER ITERATION):

    RESIDUAL       RESIDUAL       RESIDUAL       RESIDUAL       RESIDUAL    
   LAYER,ROW,COL  LAYER,ROW,COL  LAYER,ROW,COL  LAYER,ROW,COL  LAYER,ROW,COL
 ---------------------------------------------------------------------------
  1  -1.755      0  -1.145      0 -0.8454      0 -0.6937      0 -0.5006    
   (  1, 14,  8)  (  1, 14,  8)  (  1, 14,  8)  (  1, 14,  8)  (  1, 14,  8)
  1 -0.4872    
   (  1, 14,  8)



 OUTPUT CONTROL FOR STRESS PERIOD    1   TIME STEP   1
    PRINT HEAD FOR ALL LAYERS
    SAVE HEAD FOR ALL LAYERS
    PRINT BUDGET
    SAVE BUDGET
 UBDSV1 SAVING "         STORAGE" ON UNIT  34 AT TIME STEP  1, STRESS PERIOD   1
 UBDSV2 SAVING "   CONSTANT HEAD" ON UNIT  34 AT TIME STEP  1, STRESS PERIOD   1
 UBDSV1 SAVING "FLOW RIGHT FACE " ON UNIT  34 AT TIME STEP  1, STRESS PERIOD   1
 UBDSV1 SAVING "FLOW FRONT FACE " ON UNIT  34 AT TIME STEP  1, STRESS PERIOD   1
 UBDSV1 SAVING "FLOW LOWER FACE " ON UNIT  34 AT TIME STEP  1, STRESS PERIOD   1
 UBDSV4 SAVING "           WELLS" ON UNIT  34 AT TIME STEP  1, STRESS PERIOD   1
 UBDSV4 SAVING "   RIVER LEAKAGE" ON UNIT  34 AT TIME STEP  1, STRESS PERIOD   1
 UBDSV3 SAVING "        RECHARGE" ON UNIT  34 AT TIME STEP  1, STRESS PERIOD   1
1
              HEAD IN LAYER   1 AT END OF TIME STEP   1 IN STRESS PERIOD    1
  ---------------------------------------------------------------------------

           1       2       3       4       5       6       7       8       9      10      11      12      13      14      15
          16      17      18      19      20      21      22      23      24      25      26      27
 ...........................................................................................................................
   1   302.74  302.66  302.52  302.30  302.00  301.63  301.18  300.66  300.13  299.70  299.39  299.15  299.00  298.90  298.80
       298.63  298.37  297.98  297.39  296.47  295.29  293.95  292.41  290.64  288.58  286.17  283.31
   2   302.73  302.66  302.51  302.29  301.99  301.62  301.17  300.65  300.11  299.69  299.38  299.14  298.98  298.89  298.78
       298.62  298.35  297.97  297.37  296.46  295.28  293.94  292.40  290.63  288.58  286.17  283.31
   3   302.72  302.65  302.50  302.28  301.98  301.61  301.16  300.63  300.09  299.67  299.35  299.12  298.96  298.86  298.76
       298.60  298.33  297.94  297.35  296.44  295.27  293.93  292.39  290.62  288.57  286.16  283.31
   4   302.71  302.63  302.48  302.26  301.96  301.58  301.13  300.60  300.06  299.64  299.32  299.08  298.93  298.83  298.73
       298.56  298.30  297.91  297.32  296.41  295.24  293.90  292.37  290.61  288.56  286.15  283.30
   5   302.69  302.62  302.46  302.24  301.93  301.55  301.10  300.56  300.02  299.60  299.28  299.04  298.88  298.79  298.68
       298.52  298.26  297.87  297.28  296.37  295.21  293.87  292.35  290.59  288.54  286.14  283.30
   6   302.67  302.60  302.44  302.21  301.91  301.52  301.06  300.52  299.97  299.55  299.23  298.99  298.83  298.73  298.63
       298.47  298.21  297.82  297.23  296.33  295.17  293.84  292.32  290.56  288.52  286.13  283.29
   7   302.66  302.58  302.42  302.19  301.88  301.49  301.02  300.47  299.92  299.49  299.17  298.94  298.78  298.68  298.58
       298.42  298.15  297.77  297.18  296.28  295.13  293.81  292.29  290.54  288.51  286.12  283.28
   8   302.64  302.56  302.41  302.17  301.85  301.46  300.98  300.43  299.88  299.44  299.12  298.88  298.73  298.63  298.53
       298.36  298.10  297.71  297.13  296.24  295.09  293.78  292.27  290.52  288.49  286.11  283.28
   9   302.63  302.55  302.39  302.16  301.84  301.44  300.96  300.40  299.84  299.40  299.08  298.84  298.69  298.59  298.48
       298.32  298.06  297.67  297.09  296.21  295.06  293.76  292.25  290.51  288.48  286.10  283.28
  10   302.63  302.55  302.39  302.15  301.83  301.43  300.95  300.38  299.82  299.38  299.06  298.82  298.66  298.56  298.46
       298.30  298.04  297.65  297.08  296.19  295.05  293.75  292.24  290.50  288.48  286.10  283.27
  11   302.63  302.55  302.39  302.15  301.83  301.42  300.94  300.38  299.81  299.37  299.05  298.81  298.65  298.55  298.45
       298.29  298.03  297.64  297.07  296.19  295.05  293.74  292.24  290.50  288.48  286.10  283.27
  12   302.63  302.55  302.39  302.15  301.83  301.42  300.94  300.37  299.81  299.37  299.05  298.81  298.65  298.55  298.45
       298.28  298.02  297.64  297.06  296.18  295.04  293.74  292.24  290.50  288.48  286.10  283.27
  13   302.63  302.55  302.39  302.15  301.82  301.42  300.94  300.37  299.81  299.37  299.05  298.80  298.65  298.55  298.45
       298.28  298.02  297.64  297.06  296.18  295.04  293.74  292.24  290.50  288.48  286.10  283.27
  14   302.63  302.55  302.39  302.15  301.82  301.42  300.94  300.37  299.81  299.37  299.04  298.80  298.65  298.55  298.45
       298.28  298.02  297.64  297.06  296.18  295.04  293.74  292.24  290.50  288.48  286.10  283.27
  15   302.63  302.55  302.39  302.15  301.82  301.42  300.94  300.37  299.81  299.37  299.05  298.80  298.65  298.55  298.45
       298.28  298.02  297.64  297.06  296.18  295.04  293.74  292.24  290.50  288.48  286.10  283.27
  16   302.63  302.55  302.39  302.15  301.83  301.42  300.94  300.37  299.81  299.37  299.05  298.81  298.65  298.55  298.45
       298.28  298.02  297.64  297.06  296.18  295.04  293.74  292.24  290.50  288.48  286.10  283.27
  17   302.63  302.55  302.39  302.15  301.83  301.42  300.94  300.38  299.81  299.37  299.05  298.81  298.65  298.55  298.45
       298.29  298.03  297.64  297.07  296.19  295.05  293.74  292.24  290.50  288.48  286.10  283.27
  18   302.63  302.55  302.39  302.15  301.83  301.43  300.95  300.38  299.82  299.38  299.06  298.82  298.66  298.56  298.46
       298.30  298.04  297.65  297.08  296.19  295.05  293.75  292.24  290.50  288.48  286.10  283.27
  19   302.63  302.55  302.39  302.16  301.84  301.44  300.96  300.40  299.84  299.40  299.08  298.84  298.69  298.59  298.48
       298.32  298.06  297.67  297.09  296.21  295.06  293.76  292.25  290.51  288.48  286.10  283.28
  20   302.64  302.56  302.41  302.17  301.85  301.46  300.98  300.43  299.88  299.44  299.12  298.88  298.73  298.63  298.53
       298.36  298.10  297.71  297.13  296.24  295.09  293.78  292.27  290.52  288.49  286.11  283.28
  21   302.66  302.58  302.42  302.19  301.88  301.49  301.02  300.47  299.92  299.49  299.17  298.94  298.78  298.68  298.58
       298.42  298.15  297.77  297.18  296.28  295.13  293.81  292.29  290.54  288.51  286.12  283.28
  22   302.67  302.60  302.44  302.21  301.91  301.52  301.06  300.52  299.97  299.55  299.23  298.99  298.83  298.73  298.63
       298.47  298.21  297.82  297.23  296.33  295.17  293.84  292.32  290.56  288.52  286.13  283.29
  23   302.69  302.62  302.46  302.24  301.93  301.55  301.10  300.56  300.02  299.60  299.28  299.04  298.88  298.79  298.68
       298.52  298.26  297.87  297.28  296.37  295.21  293.87  292.35  290.59  288.54  286.14  283.30
  24   302.71  302.63  302.48  302.26  301.96  301.58  301.13  300.60  300.06  299.64  299.32  299.08  298.93  298.83  298.73
       298.56  298.30  297.91  297.32  296.41  295.24  293.90  292.37  290.61  288.56  286.15  283.30
  25   302.72  302.65  302.50  302.28  301.98  301.61  301.16  300.63  300.09  299.67  299.35  299.12  298.96  298.86  298.76
       298.60  298.33  297.94  297.35  296.44  295.27  293.93  292.39  290.62  288.57  286.16  283.31
  26   302.73  302.66  302.51  302.29  301.99  301.62  301.17  300.65  300.11  299.69  299.38  299.14  298.98  298.89  298.78
       298.62  298.35  297.97  297.37  296.46  295.28  293.94  292.40  290.63  288.58  286.17  283.31
  27   302.74  302.66  302.52  302.30  302.00  301.63  301.18  300.66  300.13  299.70  299.39  299.15  299.00  298.90  298.80
       298.63  298.37  297.98  297.39  296.47  295.29  293.95  292.41  290.64  288.58  286.17  283.31
1
              HEAD IN LAYER   2 AT END OF TIME STEP   1 IN STRESS PERIOD    1
  ---------------------------------------------------------------------------

           1       2       3       4       5       6       7       8       9      10      11      12      13      14      15
          16      17      18      19      20      21      22      23      24      25      26      27
 ...........................................................................................................................
   1   297.79  297.73  297.60  297.41  297.17  296.88  296.54  296.16  295.81  295.55  295.36  295.23  295.14  295.09  295.03
       294.94  294.80  294.61  294.33  293.93  293.48  293.03  292.58  292.17  291.78  291.47  291.26
   2   297.78  297.71  297.58  297.39  297.14  296.84  296.50  296.12  295.76  295.50  295.31  295.18  295.09  295.03  294.98
       294.89  294.75  294.56  294.28  293.89  293.44  292.99  292.56  292.14  291.76  291.45  291.25
   3   297.75  297.68  297.55  297.35  297.09  296.78  296.42  296.03  295.66  295.40  295.21  295.07  294.98  294.93  294.87
       294.78  294.65  294.45  294.18  293.80  293.36  292.93  292.51  292.10  291.73  291.42  291.22
   4   297.71  297.64  297.49  297.28  297.01  296.68  296.31  295.89  295.51  295.23  295.04  294.90  294.81  294.76  294.70
       294.62  294.48  294.29  294.03  293.66  293.24  292.83  292.43  292.04  291.68  291.38  291.18
   5   297.66  297.58  297.43  297.21  296.91  296.56  296.15  295.70  295.29  295.00  294.80  294.66  294.57  294.52  294.46
       294.38  294.24  294.06  293.81  293.47  293.09  292.71  292.33  291.96  291.62  291.32  291.13
   6   297.60  297.52  297.36  297.12  296.80  296.41  295.95  295.45  295.00  294.69  294.48  294.33  294.24  294.19  294.13
       294.05  293.92  293.75  293.52  293.22  292.89  292.55  292.21  291.87  291.54  291.26  291.08
   7   297.55  297.46  297.29  297.02  296.67  296.24  295.72  295.15  294.63  294.27  294.04  293.89  293.80  293.74  293.69
       293.60  293.48  293.33  293.14  292.92  292.66  292.39  292.09  291.78  291.47  291.21  291.03
   8   297.50  297.41  297.22  296.94  296.55  296.07  295.48  294.80  294.17  293.74  293.47  293.30  293.20  293.15  293.09
       293.02  292.91  292.80  292.68  292.57  292.41  292.21  291.97  291.69  291.41  291.15  290.98
   9   297.47  297.37  297.18  296.88  296.47  295.94  295.28  294.49  293.72  293.17  292.84  292.64  292.54  292.48  292.43
       292.36  292.28  292.23  292.23  292.26  292.22  292.09  291.88  291.63  291.36  291.12  290.95
  10   297.46  297.36  297.16  296.85  296.42  295.87  295.17  294.31  293.42  292.77  292.37  292.13  292.01  291.95  291.90
       291.85  291.81  291.83  291.94  292.07  292.11  292.02  291.84  291.60  291.34  291.10  290.93
  11   297.45  297.35  297.15  296.83  296.40  295.84  295.12  294.22  293.27  292.55  292.08  291.81  291.69  291.63  291.58
       291.53  291.52  291.60  291.78  291.99  292.06  291.99  291.82  291.59  291.33  291.10  290.93
  12   297.45  297.35  297.14  296.83  296.40  295.83  295.10  294.18  293.20  292.44  291.95  291.66  291.52  291.46  291.41
       291.37  291.39  291.50  291.72  291.95  292.04  291.98  291.81  291.58  291.33  291.09  290.93
  13   297.45  297.35  297.14  296.83  296.39  295.82  295.09  294.17  293.18  292.41  291.91  291.61  291.47  291.40  291.36
       291.32  291.35  291.47  291.70  291.94  292.03  291.97  291.81  291.58  291.33  291.09  290.93
  14   297.45  297.35  297.14  296.83  296.39  295.82  295.09  294.17  293.18  292.41  291.90  291.60  291.46  291.39  291.35
       291.31  291.34  291.47  291.69  291.94  292.03  291.97  291.81  291.58  291.33  291.09  290.92
  15   297.45  297.35  297.14  296.83  296.39  295.82  295.09  294.17  293.18  292.41  291.91  291.61  291.47  291.40  291.36
       291.32  291.35  291.47  291.70  291.94  292.03  291.97  291.81  291.58  291.33  291.09  290.93
  16   297.45  297.35  297.14  296.83  296.40  295.83  295.10  294.18  293.20  292.44  291.95  291.66  291.52  291.46  291.41
       291.37  291.39  291.50  291.72  291.95  292.04  291.98  291.81  291.58  291.33  291.09  290.93
  17   297.45  297.35  297.15  296.83  296.40  295.84  295.12  294.22  293.27  292.55  292.08  291.81  291.69  291.63  291.58
       291.53  291.52  291.60  291.78  291.99  292.06  291.99  291.82  291.59  291.33  291.10  290.93
  18   297.46  297.36  297.16  296.85  296.42  295.87  295.17  294.31  293.42  292.77  292.37  292.13  292.01  291.95  291.90
       291.85  291.81  291.83  291.94  292.07  292.11  292.02  291.84  291.60  291.34  291.10  290.93
  19   297.47  297.37  297.18  296.88  296.47  295.94  295.28  294.49  293.72  293.17  292.84  292.64  292.54  292.48  292.43
       292.36  292.28  292.23  292.23  292.26  292.22  292.09  291.88  291.63  291.36  291.12  290.95
  20   297.50  297.41  297.22  296.94  296.55  296.07  295.48  294.80  294.17  293.74  293.47  293.30  293.20  293.15  293.09
       293.02  292.91  292.80  292.68  292.57  292.41  292.21  291.97  291.69  291.41  291.15  290.98
  21   297.55  297.46  297.29  297.02  296.67  296.24  295.72  295.15  294.63  294.27  294.04  293.89  293.80  293.74  293.69
       293.60  293.48  293.33  293.14  292.92  292.66  292.39  292.09  291.78  291.47  291.21  291.03
  22   297.60  297.52  297.36  297.12  296.80  296.41  295.95  295.45  295.00  294.69  294.48  294.33  294.24  294.19  294.13
       294.05  293.92  293.75  293.52  293.22  292.89  292.55  292.21  291.87  291.54  291.26  291.08
  23   297.66  297.58  297.43  297.21  296.91  296.56  296.15  295.70  295.29  295.00  294.80  294.66  294.57  294.52  294.46
       294.38  294.24  294.06  293.81  293.47  293.09  292.71  292.33  291.96  291.62  291.32  291.13
  24   297.71  297.64  297.49  297.29  297.01  296.68  296.31  295.89  295.51  295.23  295.04  294.90  294.81  294.76  294.70
       294.62  294.48  294.29  294.03  293.66  293.24  292.83  292.43  292.04  291.68  291.38  291.18
  25   297.75  297.68  297.55  297.35  297.09  296.78  296.42  296.03  295.66  295.40  295.21  295.07  294.98  294.93  294.87
       294.78  294.65  294.45  294.18  293.80  293.36  292.93  292.51  292.10  291.73  291.42  291.22
  26   297.78  297.71  297.58  297.39  297.14  296.84  296.50  296.12  295.76  295.50  295.31  295.18  295.09  295.03  294.98
       294.89  294.75  294.56  294.28  293.89  293.44  292.99  292.56  292.14  291.76  291.45  291.25
  27   297.79  297.73  297.60  297.41  297.17  296.88  296.54  296.16  295.81  295.55  295.36  295.23  295.14  295.09  295.03
       294.94  294.80  294.61  294.33  293.93  293.48  293.03  292.58  292.17  291.78  291.47  291.26
1
              HEAD IN LAYER   3 AT END OF TIME STEP   1 IN STRESS PERIOD    1
  ---------------------------------------------------------------------------

           1       2       3       4       5       6       7       8       9      10      11      12      13      14      15
          16      17      18      19      20      21      22      23      24      25      26      27
 ...........................................................................................................................
   1   297.61  297.54  297.42  297.23  296.99  296.70  296.36  296.00  295.65  295.40  295.21  295.08  295.00  294.94  294.89
       294.81  294.67  294.48  294.21  293.84  293.41  293.00  292.60  292.23  291.91  291.66  291.51
   2   297.59  297.53  297.40  297.21  296.96  296.66  296.33  295.95  295.60  295.34  295.16  295.03  294.94  294.89  294.84
       294.75  294.62  294.43  294.16  293.79  293.37  292.96  292.57  292.21  291.89  291.64  291.50
   3   297.56  297.49  297.36  297.16  296.91  296.60  296.25  295.86  295.50  295.24  295.05  294.92  294.83  294.78  294.73
       294.64  294.51  294.32  294.06  293.70  293.29  292.90  292.52  292.16  291.85  291.61  291.47
   4   297.52  297.45  297.31  297.10  296.83  296.50  296.12  295.71  295.34  295.07  294.88  294.74  294.66  294.61  294.55
       294.47  294.34  294.16  293.90  293.56  293.17  292.80  292.44  292.10  291.80  291.56  291.43
   5   297.47  297.39  297.24  297.02  296.72  296.37  295.96  295.52  295.11  294.83  294.63  294.49  294.41  294.35  294.30
       294.22  294.09  293.92  293.68  293.36  293.01  292.67  292.33  292.02  291.73  291.51  291.38
   6   297.41  297.33  297.17  296.93  296.60  296.21  295.76  295.26  294.81  294.50  294.29  294.14  294.06  294.00  293.95
       293.87  293.75  293.58  293.37  293.10  292.80  292.51  292.21  291.93  291.66  291.45  291.32
   7   297.36  297.27  297.09  296.83  296.48  296.04  295.52  294.93  294.41  294.05  293.81  293.66  293.57  293.52  293.46
       293.39  293.27  293.13  292.97  292.78  292.56  292.33  292.09  291.83  291.59  291.39  291.27
   8   297.31  297.22  297.03  296.74  296.35  295.86  295.25  294.55  293.89  293.43  293.15  292.97  292.88  292.82  292.77
       292.70  292.61  292.52  292.45  292.40  292.30  292.16  291.96  291.74  291.52  291.33  291.22
   9   297.28  297.18  296.98  296.68  296.26  295.72  295.04  294.20  293.34  292.70  292.30  292.07  291.95  291.90  291.85
       291.79  291.76  291.79  291.90  292.05  292.09  292.02  291.87  291.68  291.48  291.30  291.19
  10   297.26  297.16  296.96  296.65  296.22  295.65  294.92  293.99  292.94  292.07  291.48  291.14  290.98  290.92  290.88
       290.86  290.94  291.16  291.51  291.83  291.97  291.95  291.83  291.65  291.45  291.28  291.17
  11   297.26  297.15  296.95  296.63  296.19  295.62  294.86  293.88  292.71  291.65  290.84  290.33  290.11  290.03  290.00
       290.05  290.30  290.74  291.28  291.72  291.91  291.91  291.80  291.63  291.44  291.27  291.17
  12   297.25  297.15  296.94  296.63  296.19  295.60  294.84  293.83  292.61  291.44  290.46  289.75  289.42  289.32  289.31
       289.47  289.91  290.53  291.18  291.67  291.89  291.90  291.80  291.63  291.44  291.27  291.16
  13   297.25  297.15  296.94  296.63  296.18  295.60  294.83  293.82  292.58  291.37  290.32  289.50  289.06  288.92  288.95
       289.22  289.78  290.46  291.15  291.66  291.88  291.90  291.79  291.63  291.44  291.27  291.16
  14   297.25  297.15  296.94  296.63  296.18  295.60  294.83  293.82  292.58  291.36  290.30  289.46  288.97  288.78  288.86
       289.18  289.76  290.45  291.14  291.66  291.88  291.90  291.79  291.63  291.44  291.27  291.16
  15   297.25  297.15  296.94  296.63  296.18  295.60  294.83  293.82  292.58  291.37  290.32  289.50  289.06  288.92  288.95
       289.22  289.78  290.46  291.15  291.66  291.88  291.90  291.79  291.63  291.44  291.27  291.16
  16   297.25  297.15  296.94  296.63  296.19  295.60  294.84  293.83  292.61  291.44  290.46  289.75  289.42  289.32  289.31
       289.47  289.91  290.53  291.18  291.67  291.89  291.90  291.80  291.63  291.44  291.27  291.16
  17   297.26  297.15  296.95  296.63  296.19  295.62  294.86  293.88  292.71  291.65  290.84  290.33  290.11  290.03  290.00
       290.05  290.30  290.74  291.28  291.72  291.91  291.91  291.80  291.63  291.44  291.27  291.17
  18   297.26  297.16  296.96  296.65  296.22  295.65  294.92  293.99  292.94  292.07  291.48  291.14  290.98  290.92  290.88
       290.86  290.94  291.16  291.51  291.83  291.97  291.95  291.83  291.65  291.45  291.28  291.17
  19   297.28  297.18  296.98  296.68  296.26  295.72  295.04  294.20  293.34  292.70  292.30  292.07  291.95  291.90  291.85
       291.79  291.76  291.79  291.90  292.05  292.09  292.02  291.87  291.68  291.48  291.30  291.19
  20   297.31  297.22  297.03  296.74  296.35  295.86  295.25  294.55  293.89  293.43  293.15  292.97  292.88  292.82  292.77
       292.70  292.61  292.52  292.45  292.40  292.30  292.16  291.96  291.74  291.52  291.33  291.22
  21   297.36  297.27  297.09  296.83  296.48  296.04  295.52  294.93  294.41  294.05  293.81  293.66  293.57  293.52  293.46
       293.39  293.27  293.13  292.97  292.78  292.56  292.33  292.09  291.83  291.59  291.39  291.27
  22   297.41  297.33  297.17  296.93  296.60  296.21  295.76  295.26  294.81  294.50  294.29  294.14  294.06  294.00  293.95
       293.87  293.75  293.58  293.37  293.10  292.80  292.51  292.21  291.93  291.66  291.45  291.32
  23   297.47  297.39  297.24  297.02  296.72  296.37  295.96  295.52  295.11  294.83  294.63  294.49  294.41  294.35  294.30
       294.22  294.09  293.92  293.68  293.36  293.01  292.67  292.33  292.02  291.73  291.51  291.38
  24   297.52  297.45  297.31  297.10  296.83  296.50  296.12  295.71  295.34  295.07  294.88  294.74  294.66  294.61  294.55
       294.47  294.34  294.16  293.90  293.56  293.17  292.80  292.44  292.10  291.80  291.56  291.43
  25   297.56  297.49  297.36  297.16  296.91  296.60  296.25  295.86  295.50  295.24  295.05  294.92  294.83  294.78  294.73
       294.64  294.51  294.32  294.06  293.70  293.29  292.90  292.52  292.16  291.85  291.61  291.47
  26   297.59  297.53  297.40  297.21  296.96  296.66  296.33  295.95  295.60  295.34  295.16  295.03  294.94  294.89  294.84
       294.75  294.62  294.43  294.16  293.79  293.37  292.96  292.57  292.21  291.89  291.64  291.50
  27   297.61  297.54  297.42  297.23  296.99  296.70  296.36  296.00  295.65  295.40  295.21  295.08  295.00  294.94  294.89
       294.81  294.67  294.48  294.21  293.84  293.41  293.00  292.60  292.23  291.91  291.66  291.51
1
              HEAD IN LAYER   4 AT END OF TIME STEP   1 IN STRESS PERIOD    1
  ---------------------------------------------------------------------------

           1       2       3       4       5       6       7       8       9      10      11      12      13      14      15
          16      17      18      19      20      21      22      23      24      25      26      27
 ...........................................................................................................................
   1   297.48  297.42  297.29  297.11  296.87  296.58  296.25  295.88  295.54  295.29  295.11  294.99  294.90  294.85  294.80
       294.72  294.58  294.40  294.14  293.78  293.37  292.98  292.61  292.27  291.99  291.78  291.66
   2   297.47  297.40  297.27  297.08  296.84  296.55  296.21  295.84  295.49  295.24  295.06  294.93  294.85  294.80  294.74
       294.66  294.53  294.35  294.09  293.73  293.33  292.95  292.58  292.25  291.97  291.76  291.64
   3   297.44  297.37  297.24  297.04  296.78  296.48  296.13  295.74  295.39  295.13  294.95  294.82  294.73  294.68  294.63
       294.55  294.42  294.24  293.99  293.64  293.25  292.88  292.53  292.21  291.93  291.73  291.61
   4   297.39  297.32  297.18  296.97  296.70  296.38  296.00  295.60  295.22  294.96  294.77  294.64  294.55  294.50  294.45
       294.37  294.24  294.07  293.82  293.49  293.13  292.78  292.44  292.14  291.88  291.68  291.57
   5   297.34  297.27  297.12  296.89  296.60  296.24  295.84  295.39  294.99  294.71  294.51  294.38  294.29  294.24  294.19
       294.11  293.98  293.82  293.59  293.29  292.96  292.64  292.34  292.06  291.81  291.63  291.52
   6   297.29  297.20  297.04  296.80  296.48  296.08  295.62  295.12  294.67  294.36  294.15  294.01  293.93  293.87  293.82
       293.74  293.62  293.47  293.27  293.02  292.75  292.48  292.22  291.96  291.74  291.56  291.47
   7   297.23  297.14  296.96  296.70  296.34  295.90  295.37  294.78  294.24  293.88  293.64  293.49  293.40  293.35  293.30
       293.22  293.11  292.99  292.84  292.68  292.50  292.30  292.08  291.87  291.66  291.50  291.41
   8   297.18  297.09  296.90  296.61  296.21  295.71  295.10  294.37  293.67  293.18  292.87  292.69  292.59  292.54  292.49
       292.42  292.35  292.29  292.27  292.27  292.22  292.11  291.96  291.77  291.59  291.45  291.36
   9   297.15  297.05  296.85  296.54  296.12  295.57  294.87  293.98  293.01  292.24  291.73  291.44  291.31  291.25  291.21
       291.17  291.20  291.35  291.61  291.87  291.99  291.97  291.86  291.71  291.55  291.41  291.33
  10   297.13  297.03  296.83  296.51  296.07  295.49  294.73  293.72  292.48  291.27  290.28  289.64  289.38  289.30  289.28
       289.37  289.75  290.38  291.08  291.62  291.86  291.89  291.82  291.68  291.53  291.39  291.31
  11   297.13  297.02  296.82  296.50  296.05  295.46  294.67  293.59  292.14  290.45  288.67  287.13  286.39  286.22  286.29
       286.86  288.14  289.56  290.74  291.48  291.80  291.86  291.79  291.66  291.52  291.39  291.31
  12   297.12  297.02  296.81  296.49  296.04  295.44  294.65  293.53  291.98  289.94  287.26  283.94  281.49  280.77  281.38
       283.67  286.73  289.05  290.57  291.43  291.77  291.85  291.79  291.66  291.51  291.38  291.31
  13   297.12  297.02  296.81  296.49  296.04  295.44  294.64  293.52  291.92  289.76  286.60  281.57  275.21  270.92  275.11
       281.30  286.07  288.87  290.52  291.41  291.76  291.84  291.78  291.66  291.51  291.38  291.30
  14   297.12  297.02  296.81  296.49  296.04  295.44  294.64  293.51  291.92  289.73  286.48  280.90  270.98  251.22  270.87
       280.63  285.95  288.84  290.51  291.41  291.76  291.84  291.78  291.66  291.51  291.38  291.30
  15   297.12  297.02  296.81  296.49  296.04  295.44  294.64  293.52  291.92  289.76  286.60  281.57  275.21  270.92  275.11
       281.30  286.07  288.87  290.52  291.41  291.76  291.84  291.78  291.66  291.51  291.38  291.30
  16   297.12  297.02  296.81  296.49  296.04  295.44  294.65  293.53  291.98  289.94  287.26  283.94  281.49  280.77  281.38
       283.67  286.73  289.05  290.57  291.43  291.77  291.85  291.79  291.66  291.51  291.38  291.31
  17   297.13  297.02  296.82  296.50  296.05  295.46  294.67  293.59  292.14  290.45  288.67  287.13  286.39  286.22  286.29
       286.86  288.14  289.56  290.74  291.48  291.80  291.86  291.79  291.66  291.52  291.39  291.31
  18   297.13  297.03  296.83  296.51  296.07  295.49  294.73  293.72  292.48  291.27  290.28  289.64  289.38  289.30  289.28
       289.37  289.75  290.38  291.08  291.62  291.86  291.89  291.82  291.68  291.53  291.39  291.31
  19   297.15  297.05  296.85  296.54  296.12  295.57  294.87  293.98  293.01  292.24  291.73  291.44  291.31  291.25  291.21
       291.17  291.20  291.35  291.61  291.87  291.99  291.97  291.86  291.71  291.55  291.41  291.33
  20   297.18  297.09  296.90  296.61  296.21  295.71  295.10  294.37  293.67  293.18  292.87  292.69  292.59  292.54  292.49
       292.42  292.35  292.29  292.27  292.27  292.22  292.11  291.96  291.77  291.59  291.45  291.36
  21   297.23  297.14  296.96  296.70  296.34  295.90  295.37  294.78  294.24  293.88  293.64  293.49  293.40  293.35  293.30
       293.22  293.11  292.99  292.84  292.68  292.50  292.30  292.08  291.87  291.66  291.50  291.41
  22   297.29  297.20  297.04  296.80  296.48  296.08  295.62  295.12  294.67  294.36  294.15  294.01  293.93  293.87  293.82
       293.74  293.62  293.47  293.27  293.02  292.75  292.48  292.22  291.96  291.74  291.56  291.47
  23   297.34  297.27  297.12  296.89  296.60  296.24  295.84  295.39  294.99  294.71  294.51  294.38  294.29  294.24  294.19
       294.11  293.98  293.82  293.59  293.29  292.96  292.64  292.34  292.06  291.81  291.63  291.52
  24   297.39  297.32  297.18  296.97  296.70  296.38  296.00  295.60  295.22  294.96  294.77  294.64  294.55  294.50  294.45
       294.37  294.24  294.07  293.82  293.49  293.13  292.78  292.44  292.14  291.88  291.68  291.57
  25   297.44  297.37  297.24  297.04  296.78  296.48  296.13  295.74  295.39  295.13  294.95  294.82  294.73  294.68  294.63
       294.55  294.42  294.24  293.99  293.64  293.25  292.88  292.53  292.21  291.93  291.73  291.61
  26   297.47  297.40  297.27  297.09  296.84  296.55  296.21  295.84  295.49  295.24  295.06  294.93  294.85  294.80  294.74
       294.66  294.53  294.35  294.09  293.73  293.33  292.95  292.58  292.25  291.97  291.76  291.64
  27   297.48  297.42  297.29  297.11  296.87  296.58  296.25  295.88  295.54  295.29  295.11  294.99  294.90  294.85  294.80
       294.72  294.59  294.40  294.14  293.78  293.37  292.98  292.61  292.27  291.99  291.78  291.66
1
              HEAD IN LAYER   5 AT END OF TIME STEP   1 IN STRESS PERIOD    1
  ---------------------------------------------------------------------------

           1       2       3       4       5       6       7       8       9      10      11      12      13      14      15
          16      17      18      19      20      21      22      23      24      25      26      27
 ...........................................................................................................................
   1   297.42  297.36  297.23  297.05  296.81  296.52  296.19  295.83  295.49  295.24  295.06  294.94  294.86  294.80  294.75
       294.67  294.54  294.36  294.11  293.75  293.35  292.97  292.62  292.30  292.03  291.83  291.73
   2   297.40  297.34  297.21  297.02  296.78  296.49  296.15  295.78  295.44  295.19  295.01  294.88  294.80  294.75  294.70
       294.62  294.49  294.31  294.05  293.70  293.31  292.94  292.59  292.27  292.01  291.82  291.71
   3   297.37  297.31  297.17  296.98  296.72  296.42  296.07  295.69  295.33  295.08  294.90  294.77  294.69  294.63  294.58
       294.50  294.37  294.20  293.95  293.61  293.23  292.87  292.53  292.23  291.97  291.78  291.68
   4   297.33  297.26  297.12  296.91  296.64  296.31  295.94  295.54  295.17  294.90  294.72  294.59  294.50  294.45  294.40
       294.32  294.19  294.02  293.78  293.46  293.10  292.77  292.45  292.16  291.92  291.74  291.64
   5   297.28  297.20  297.05  296.83  296.53  296.18  295.77  295.33  294.93  294.65  294.45  294.32  294.24  294.19  294.13
       294.05  293.93  293.77  293.54  293.25  292.93  292.63  292.34  292.08  291.85  291.68  291.59
   6   297.22  297.14  296.98  296.73  296.41  296.02  295.56  295.05  294.60  294.29  294.08  293.95  293.86  293.81  293.76
       293.68  293.56  293.41  293.22  292.97  292.72  292.47  292.22  291.98  291.78  291.62  291.53
   7   297.17  297.08  296.90  296.63  296.28  295.83  295.30  294.71  294.16  293.79  293.56  293.41  293.32  293.27  293.22
       293.14  293.04  292.91  292.78  292.63  292.46  292.28  292.08  291.88  291.70  291.56  291.48
   8   297.12  297.02  296.83  296.54  296.15  295.64  295.02  294.28  293.58  293.09  292.79  292.61  292.51  292.46  292.41
       292.34  292.26  292.21  292.19  292.20  292.18  292.09  291.95  291.79  291.63  291.50  291.43
   9   297.08  296.98  296.78  296.48  296.05  295.49  294.78  293.88  292.92  292.20  291.75  291.50  291.38  291.32  291.28
       291.23  291.23  291.32  291.54  291.80  291.94  291.95  291.86  291.73  291.58  291.46  291.40
  10   297.07  296.97  296.76  296.44  296.00  295.42  294.65  293.63  292.43  291.42  290.74  290.35  290.19  290.12  290.08
       290.08  290.21  290.54  291.05  291.55  291.81  291.87  291.81  291.69  291.56  291.45  291.38
  11   297.06  296.96  296.75  296.43  295.98  295.38  294.58  293.50  292.15  290.91  289.96  289.38  289.14  289.06  289.04
       289.11  289.44  290.03  290.77  291.42  291.74  291.83  291.79  291.68  291.55  291.44  291.37
  12   297.06  296.96  296.75  296.42  295.97  295.36  294.55  293.44  292.03  290.64  289.50  288.71  288.35  288.25  288.25
       288.44  288.98  289.77  290.64  291.36  291.72  291.82  291.78  291.67  291.55  291.44  291.37
  13   297.06  296.95  296.74  296.42  295.97  295.36  294.55  293.42  291.99  290.56  289.34  288.43  287.95  287.81  287.85
       288.16  288.82  289.68  290.60  291.35  291.71  291.81  291.78  291.67  291.55  291.43  291.37
  14   297.06  296.95  296.74  296.42  295.97  295.36  294.55  293.42  291.98  290.55  289.32  288.38  287.86  287.67  287.76
       288.11  288.80  289.67  290.60  291.34  291.71  291.81  291.78  291.67  291.55  291.43  291.37
  15   297.06  296.95  296.74  296.42  295.97  295.36  294.55  293.42  291.99  290.56  289.34  288.43  287.95  287.81  287.85
       288.16  288.82  289.68  290.60  291.35  291.71  291.81  291.78  291.67  291.55  291.43  291.37
  16   297.06  296.96  296.75  296.42  295.97  295.36  294.55  293.44  292.03  290.64  289.50  288.71  288.35  288.25  288.25
       288.44  288.98  289.77  290.64  291.36  291.72  291.82  291.78  291.67  291.55  291.44  291.37
  17   297.06  296.96  296.75  296.43  295.98  295.38  294.58  293.50  292.15  290.91  289.96  289.38  289.14  289.06  289.04
       289.11  289.44  290.03  290.77  291.42  291.74  291.83  291.79  291.68  291.55  291.44  291.37
  18   297.07  296.97  296.76  296.44  296.00  295.42  294.65  293.63  292.43  291.42  290.74  290.35  290.19  290.12  290.08
       290.08  290.21  290.54  291.05  291.55  291.81  291.87  291.81  291.69  291.56  291.45  291.38
  19   297.08  296.98  296.78  296.48  296.05  295.49  294.78  293.88  292.92  292.20  291.75  291.50  291.38  291.32  291.28
       291.23  291.23  291.32  291.54  291.80  291.94  291.95  291.86  291.73  291.58  291.46  291.40
  20   297.12  297.02  296.83  296.54  296.15  295.64  295.02  294.28  293.58  293.09  292.79  292.61  292.51  292.46  292.41
       292.34  292.26  292.21  292.19  292.20  292.18  292.09  291.95  291.79  291.63  291.50  291.43
  21   297.17  297.08  296.90  296.63  296.28  295.83  295.30  294.71  294.16  293.79  293.56  293.41  293.32  293.27  293.22
       293.14  293.04  292.91  292.78  292.63  292.46  292.28  292.08  291.88  291.70  291.56  291.48
  22   297.22  297.14  296.98  296.73  296.41  296.02  295.56  295.05  294.60  294.29  294.08  293.95  293.86  293.81  293.76
       293.68  293.56  293.41  293.22  292.97  292.72  292.47  292.22  291.98  291.78  291.62  291.53
  23   297.28  297.20  297.05  296.83  296.53  296.18  295.77  295.33  294.93  294.65  294.45  294.32  294.24  294.19  294.13
       294.05  293.93  293.77  293.54  293.25  292.93  292.63  292.34  292.08  291.85  291.68  291.59
  24   297.33  297.26  297.12  296.91  296.64  296.31  295.94  295.54  295.17  294.90  294.72  294.59  294.50  294.45  294.40
       294.32  294.19  294.02  293.78  293.46  293.10  292.77  292.45  292.16  291.92  291.74  291.64
  25   297.37  297.31  297.17  296.98  296.72  296.42  296.07  295.69  295.33  295.08  294.90  294.77  294.69  294.63  294.58
       294.50  294.37  294.20  293.95  293.61  293.23  292.87  292.53  292.23  291.97  291.78  291.68
  26   297.40  297.34  297.21  297.02  296.78  296.49  296.15  295.78  295.44  295.19  295.01  294.88  294.80  294.75  294.70
       294.62  294.49  294.31  294.05  293.70  293.31  292.94  292.59  292.27  292.01  291.82  291.71
  27   297.42  297.36  297.23  297.05  296.81  296.52  296.19  295.83  295.49  295.24  295.06  294.94  294.86  294.80  294.75
       294.67  294.54  294.36  294.11  293.75  293.35  292.97  292.62  292.30  292.03  291.83  291.73

 HEAD WILL BE SAVED ON UNIT   32 AT END OF TIME STEP   1, STRESS PERIOD    1
1
  VOLUMETRIC BUDGET FOR ENTIRE MODEL AT END OF TIME STEP  1 IN STRESS PERIOD   1
  ------------------------------------------------------------------------------

     CUMULATIVE VOLUMES      L**3       RATES FOR THIS TIME STEP      L**3/T
     ------------------                 ------------------------

           IN:                                      IN:
           ---                                      ---
             STORAGE =          52.0029               STORAGE =       2.8495E-04
       CONSTANT HEAD =           0.0000         CONSTANT HEAD =           0.0000
               WELLS =           0.0000                 WELLS =           0.0000
       RIVER LEAKAGE =           0.0000         RIVER LEAKAGE =           0.0000
            RECHARGE = 53351354368.0000              RECHARGE =      292336.1875

            TOTAL IN = 53351354368.0000              TOTAL IN =      292336.1875

          OUT:                                     OUT:
          ----                                     ----
             STORAGE =        1155.6028               STORAGE =       6.3321E-03
       CONSTANT HEAD =           0.0000         CONSTANT HEAD =           0.0000
               WELLS = 14599999488.0000                 WELLS =       80000.0000
       RIVER LEAKAGE = 38751404032.0000         RIVER LEAKAGE =      212336.4688
            RECHARGE =           0.0000              RECHARGE =           0.0000

           TOTAL OUT = 53351403520.0000             TOTAL OUT =      292336.4688

            IN - OUT =      -49152.0000              IN - OUT =          -0.2812

 PERCENT DISCREPANCY =           0.00     PERCENT DISCREPANCY =           0.00






          TIME SUMMARY AT END OF TIME STEP   1 IN STRESS PERIOD    1
                    SECONDS     MINUTES      HOURS       DAYS        YEARS
                    -----------------------------------------------------------
   TIME STEP LENGTH 1.57680E+10 2.62800E+08 4.38000E+06 1.82500E+05  499.66    
 STRESS PERIOD TIME 1.57680E+10 2.62800E+08 4.38000E+06 1.82500E+05  499.66    
         TOTAL TIME 1.57680E+10 2.62800E+08 4.38000E+06 1.82500E+05  499.66    
1
1
                            STRESS PERIOD NO.    2, LENGTH =   10950.00    
                            -----------------------------------------------

                              NUMBER OF TIME STEPS =     8

                               MULTIPLIER FOR DELT =     2.000

                            INITIAL TIME STEP SIZE =   42.94118    

 WELL NO.  LAYER   ROW   COL   STRESS RATE         IFACE           
 ------------------------------------------------------------------
      1      4     14     14     -0.8000E+05       0.000    
      2      1     14     14     -0.8000E+05       0.000    

      2 WELLS

 REUSING NON-PARAMETER RIVER REACHES FROM LAST STRESS PERIOD

     27 RIVER REACHES

 REUSING RECH FROM LAST STRESS PERIOD
 
 SOLVING FOR HEAD 


     6 CALLS TO PCG ROUTINE FOR TIME STEP   1 IN STRESS PERIOD    2
    63 TOTAL ITERATIONS

 MAXIMUM HEAD CHANGE FOR EACH ITERATION (1 INDICATES THE FIRST INNER ITERATION):

    HEAD CHANGE    HEAD CHANGE    HEAD CHANGE    HEAD CHANGE    HEAD CHANGE 
   LAYER,ROW,COL  LAYER,ROW,COL  LAYER,ROW,COL  LAYER,ROW,COL  LAYER,ROW,COL
 ---------------------------------------------------------------------------
  1  -12.55      0  -3.422      0 -0.4532      0 -0.4687      0 -0.1922    
   (  1, 14, 14)  (  1, 14, 14)  (  5, 10, 10)  (  1, 15, 12)  (  5, 23,  1)
  0 -0.1426      0 -0.8332E-01  0  0.5857E-01  0 -0.3268E-01  0 -0.2039E-01
   (  1, 13, 15)  (  1, 13, 15)  (  3, 11, 11)  (  5,  4,  9)  (  5, 11,  6)
  0 -0.1502E-01  0 -0.1374E-01  0 -0.5367E-02  0  0.5441E-02  0 -0.1596E-02
   (  2, 11, 11)  (  5, 27,  1)  (  5, 11,  3)  (  2, 15, 13)  (  5, 27,  1)
  0 -0.1546E-02  0 -0.1176E-02  0  0.5446E-03  0  0.2763E-03  0 -0.1973E-03
   (  2, 13, 13)  (  5, 27,  1)  (  2, 13, 13)  (  4, 11, 10)  (  2, 13, 13)
  1  -1.637      0  0.3405      0 -0.8237E-01  0 -0.4124E-01  0 -0.2316E-01
   (  1, 14, 14)  (  1, 13, 13)  (  1, 13, 15)  (  5, 10,  9)  (  3, 14, 13)
  0 -0.2391E-01  0  0.7940E-02  0  0.5028E-02  0  0.3029E-02  0 -0.2085E-02
   (  5, 27,  1)  (  2, 12, 11)  (  2, 14, 12)  (  5,  9,  4)  (  5, 10,  5)
  0 -0.2266E-02  0  0.1083E-02  0  0.1032E-02  0 -0.2481E-03  0 -0.1721E-03
   (  5, 10, 10)  (  1, 14, 17)  (  2, 12, 12)  (  5,  1, 27)  (  5,  4, 10)
  0 -0.1319E-03  0 -0.1171E-03  0  0.9701E-04  1 -0.1673      0  0.3916E-01
   (  5, 13,  2)  (  5, 27,  1)  (  5, 27,  1)  (  1, 14, 14)  (  1, 13, 13)
  0 -0.1130E-01  0  0.4370E-02  0  0.2486E-02  0  0.2158E-02  0 -0.8357E-03
   (  1, 13, 15)  (  5, 27,  1)  (  5, 10, 11)  (  1, 12, 14)  (  5, 11,  1)
  0 -0.4204E-03  0  0.2979E-03  0  0.2033E-03  0 -0.1590E-03  0  0.9630E-04
   (  5,  5, 10)  (  5,  5, 11)  (  5, 13,  7)  (  5,  9,  6)  (  1, 14, 17)
  1 -0.1240E-01  0  0.1580E-02  0  0.9031E-03  0  0.3626E-03  0 -0.4716E-03
   (  1, 14, 14)  (  1, 13, 13)  (  1, 13, 13)  (  5, 20,  9)  (  1, 13, 15)
  0 -0.3432E-03  0 -0.1366E-03  0 -0.1581E-03  0  0.7892E-04  1 -0.3616E-03
   (  1, 13, 15)  (  5, 13,  2)  (  5, 27,  1)  (  5, 27,  1)  (  1, 14, 14)
  0 -0.3667E-03  0 -0.9164E-04  1 -0.4790E-04
   (  1, 14, 14)  (  2, 13, 13)  (  5, 12,  2)

 MAXIMUM RESIDUAL FOR EACH ITERATION (1 INDICATES THE FIRST INNER ITERATION):

    RESIDUAL       RESIDUAL       RESIDUAL       RESIDUAL       RESIDUAL    
   LAYER,ROW,COL  LAYER,ROW,COL  LAYER,ROW,COL  LAYER,ROW,COL  LAYER,ROW,COL
 ---------------------------------------------------------------------------
  1  0.3627E+05  0   8885.      0   7762.      0   4540.      0   3442.    
   (  1, 14, 14)  (  1, 15, 13)  (  1, 15, 13)  (  1, 15, 13)  (  1, 15, 13)
  0   1577.      0   507.9      0   489.5      0   350.9      0   255.5    
   (  1, 15, 13)  (  1, 16, 12)  (  1, 16, 12)  (  1, 16, 12)  (  1, 16, 12)
  0   172.6      0   97.91      0   42.39      0   20.36      0   17.24    
   (  1, 12, 16)  (  1, 16, 12)  (  1, 16, 12)  (  1, 11, 17)  (  1, 11, 17)
  0   9.877      0   5.987      0   3.239      0   1.776      0  0.7693    
   (  1, 17, 11)  (  1, 17, 11)  (  1, 17, 11)  (  1, 17, 11)  (  1, 11, 17)
  1   4725.      0   1539.      0   876.0      0   661.2      0   400.6    
   (  1, 14, 14)  (  1, 15, 13)  (  1, 13, 15)  (  1, 13, 15)  (  1, 13, 15)
  0   93.78      0   94.51      0   75.00      0   55.95      0   43.86    
   (  1, 16, 12)  (  1, 16, 12)  (  1, 16, 12)  (  1, 16, 12)  (  1, 16, 12)
  0   26.92      0   9.629      0   4.085      0   3.614      0   2.787    
   (  1, 16, 12)  (  1, 16, 12)  (  1, 17, 11)  (  1, 17, 11)  (  1, 17, 11)
  0   1.845      0  0.9978      0  0.2899      1   331.8      0   180.9    
   (  1, 17, 11)  (  1, 17, 11)  (  1, 11, 17)  (  1, 14, 14)  (  1, 15, 13)
  0   87.33      0   56.89      0   34.25      0   11.87      0   11.26    
   (  1, 15, 13)  (  1, 13, 15)  (  1, 13, 15)  (  1, 16, 12)  (  1, 16, 12)
  0   8.363      0   5.937      0   4.423      0   2.488      0  0.7309    
   (  1, 16, 12)  (  1, 16, 12)  (  1, 16, 12)  (  1, 16, 12)  (  1, 12, 16)
  1   18.37      0   15.65      0   12.95      0   10.45      0   5.937    
   (  1, 14, 14)  (  1, 15, 13)  (  1, 15, 13)  (  1, 15, 13)  (  1, 15, 13)
  0   2.676      0   1.234      0  0.8608      0  0.7960      1   4.563    
   (  1, 13, 15)  (  1, 13, 15)  (  1, 16, 12)  (  1, 16, 12)  (  1, 14, 14)
  0   1.308      0   1.257      1   1.111    
   (  1, 15, 13)  (  1, 15, 13)  (  1, 15, 13)



 OUTPUT CONTROL FOR STRESS PERIOD    2   TIME STEP   1
    PRINT BUDGET
    SAVE HEAD FOR ALL LAYERS
    SAVE BUDGET
 UBDSV1 SAVING "         STORAGE" ON UNIT  34 AT TIME STEP  1, STRESS PERIOD   2
 UBDSV2 SAVING "   CONSTANT HEAD" ON UNIT  34 AT TIME STEP  1, STRESS PERIOD   2
 UBDSV1 SAVING "FLOW RIGHT FACE " ON UNIT  34 AT TIME STEP  1, STRESS PERIOD   2
 UBDSV1 SAVING "FLOW FRONT FACE " ON UNIT  34 AT TIME STEP  1, STRESS PERIOD   2
 UBDSV1 SAVING "FLOW LOWER FACE " ON UNIT  34 AT TIME STEP  1, STRESS PERIOD   2
 UBDSV4 SAVING "           WELLS" ON UNIT  34 AT TIME STEP  1, STRESS PERIOD   2
 UBDSV4 SAVING "   RIVER LEAKAGE" ON UNIT  34 AT TIME STEP  1, STRESS PERIOD   2
 UBDSV3 SAVING "        RECHARGE" ON UNIT  34 AT TIME STEP  1, STRESS PERIOD   2

 HEAD WILL BE SAVED ON UNIT   32 AT END OF TIME STEP   1, STRESS PERIOD    2
1
  VOLUMETRIC BUDGET FOR ENTIRE MODEL AT END OF TIME STEP  1 IN STRESS PERIOD   2
  ------------------------------------------------------------------------------

     CUMULATIVE VOLUMES      L**3       RATES FOR THIS TIME STEP      L**3/T
     ------------------                 ------------------------

           IN:                                      IN:
           ---                                      ---
             STORAGE =     3387599.7500               STORAGE =       78888.0938
       CONSTANT HEAD =           0.0000         CONSTANT HEAD =           0.0000
               WELLS =           0.0000                 WELLS =           0.0000
       RIVER LEAKAGE =           0.0000         RIVER LEAKAGE =           0.0000
            RECHARGE = 53363908608.0000              RECHARGE =      292336.1875

            TOTAL IN = 53367296000.0000              TOTAL IN =      371224.2812

          OUT:                                     OUT:
          ----                                     ----
             STORAGE =        1155.6028               STORAGE =           0.0000
       CONSTANT HEAD =           0.0000         CONSTANT HEAD =           0.0000
               WELLS = 14606870528.0000                 WELLS =      160000.0000
       RIVER LEAKAGE = 38760472576.0000         RIVER LEAKAGE =      211224.9844
            RECHARGE =           0.0000              RECHARGE =           0.0000

           TOTAL OUT = 53367345152.0000             TOTAL OUT =      371225.0000

            IN - OUT =      -49152.0000              IN - OUT =          -0.7188

 PERCENT DISCREPANCY =           0.00     PERCENT DISCREPANCY =           0.00






          TIME SUMMARY AT END OF TIME STEP   1 IN STRESS PERIOD    2
                    SECONDS     MINUTES      HOURS       DAYS        YEARS
                    -----------------------------------------------------------
   TIME STEP LENGTH 3.71012E+06  61835.      1030.6      42.941     0.11757    
 STRESS PERIOD TIME 3.71012E+06  61835.      1030.6      42.941     0.11757    
         TOTAL TIME 1.57717E+10 2.62862E+08 4.38103E+06 1.82543E+05  499.78    
1
 
 SOLVING FOR HEAD 
     5 CALLS TO PCG ROUTINE FOR TIME STEP   2 IN STRESS PERIOD    2
    55 TOTAL ITERATIONS

 MAXIMUM HEAD CHANGE FOR EACH ITERATION (1 INDICATES THE FIRST INNER ITERATION):

    HEAD CHANGE    HEAD CHANGE    HEAD CHANGE    HEAD CHANGE    HEAD CHANGE 
   LAYER,ROW,COL  LAYER,ROW,COL  LAYER,ROW,COL  LAYER,ROW,COL  LAYER,ROW,COL
 ---------------------------------------------------------------------------
  1  -2.293      0 -0.3218      0 -0.3653      0 -0.1330      0 -0.1140    
   (  1, 13, 13)  (  5, 22,  1)  (  5,  9,  9)  (  2, 12, 14)  (  5, 27,  1)
  0 -0.9712E-01  0 -0.6275E-01  0 -0.3403E-01  0 -0.2542E-01  0 -0.1716E-01
   (  5,  6, 10)  (  4, 13, 11)  (  5,  7, 11)  (  5, 10,  6)  (  5,  3,  9)
  0 -0.1304E-01  0 -0.7090E-02  0  0.5730E-02  0 -0.4226E-02  0  0.1455E-02
   (  5, 10,  3)  (  5, 27,  1)  (  5, 27,  1)  (  5, 27,  1)  (  5, 27,  1)
  0  0.1061E-02  0  0.8515E-03  0 -0.5764E-03  0  0.2481E-03  0  0.2065E-03
   (  2, 14, 15)  (  5, 27,  2)  (  5, 13,  1)  (  5,  7,  2)  (  5,  1, 27)
  1 -0.4192      0 -0.1151      0 -0.1856E-01  0 -0.1566E-01  0  0.9007E-02
   (  1, 14, 14)  (  1, 14, 14)  (  5, 27,  1)  (  1, 12, 15)  (  5,  1, 24)
  0 -0.6986E-02  0 -0.6233E-02  0  0.2546E-02  0  0.1517E-02  0  0.1815E-02
   (  5, 12,  1)  (  5,  1, 27)  (  5, 27,  1)  (  5,  1,  9)  (  5, 11, 10)
  0 -0.1002E-02  0 -0.6012E-03  0  0.4714E-03  0  0.3254E-03  0  0.1045E-03
   (  5, 11, 10)  (  5, 27,  1)  (  5, 10,  4)  (  2, 12, 12)  (  5, 13,  2)
  0 -0.5657E-04  1 -0.6530E-01  0  0.1559E-01  0 -0.2094E-02  0 -0.3002E-02
   (  5, 12,  3)  (  1, 14, 14)  (  1, 13, 13)  (  5, 27,  1)  (  1, 13, 15)
  0 -0.1260E-02  0 -0.9117E-03  0 -0.7903E-03  0  0.5411E-03  0 -0.2162E-03
   (  5,  2,  9)  (  5, 12,  9)  (  5, 11,  1)  (  5, 10,  3)  (  1, 12, 17)
  0 -0.1409E-03  0  0.7235E-04  1 -0.6104E-02  0  0.5283E-03  0  0.8078E-03
   (  5, 10, 24)  (  5, 27,  1)  (  1, 14, 14)  (  5, 27,  1)  (  1, 13, 13)
  0  0.4387E-03  0 -0.1936E-03  0 -0.2865E-03  0  0.9368E-04  1 -0.9550E-04
   (  1, 13, 13)  (  1, 13, 15)  (  1, 13, 15)  (  5, 25, 11)  (  5,  3, 11)

 MAXIMUM RESIDUAL FOR EACH ITERATION (1 INDICATES THE FIRST INNER ITERATION):

    RESIDUAL       RESIDUAL       RESIDUAL       RESIDUAL       RESIDUAL    
   LAYER,ROW,COL  LAYER,ROW,COL  LAYER,ROW,COL  LAYER,ROW,COL  LAYER,ROW,COL
 ---------------------------------------------------------------------------
  1  -1417.      0  -755.4      0   372.7      0   497.1      0   311.6    
   (  1, 10, 10)  (  1,  9,  9)  (  1, 10, 10)  (  1, 10, 10)  (  1,  9,  9)
  0   197.6      0   90.45      0   61.45      0   48.07      0  -41.29    
   (  1,  9,  9)  (  1,  8,  8)  (  1,  8, 27)  (  1,  8, 27)  (  1,  9,  9)
  0   28.65      0   20.16      0   15.73      0   11.80      0   7.452    
   (  1,  6, 27)  (  1,  5, 27)  (  1,  4, 27)  (  1,  1, 27)  (  1,  1, 27)
  0   4.763      0   2.526      0   1.303      0  0.8091      0 -0.4812    
   (  1,  1, 27)  (  1,  1, 27)  (  1,  1, 27)  (  1,  1, 27)  (  1,  1, 25)
  1   1345.      0   305.7      0   272.5      0   193.4      0   164.7    
   (  1, 14, 14)  (  1, 13, 15)  (  1, 13, 15)  (  1, 13, 15)  (  1, 13, 15)
  0   100.3      0   32.14      0   18.84      0   16.24      0   13.51    
   (  1, 13, 15)  (  1, 13, 15)  (  1, 13, 15)  (  1, 16, 12)  (  1, 16, 12)
  0   10.76      0   7.921      0   3.640      0   1.555      0  0.8864    
   (  1, 16, 12)  (  1, 16, 12)  (  1, 16, 12)  (  1, 16, 12)  (  1, 16, 12)
  0  0.7062      1   170.2      0   65.76      0   56.68      0   34.93    
   (  1, 17, 11)  (  1, 14, 14)  (  1, 15, 13)  (  1, 15, 13)  (  1, 15, 13)
  0   27.30      0   17.19      0   4.892      0   3.886      0   3.179    
   (  1, 13, 15)  (  1, 13, 15)  (  1, 13, 15)  (  1, 16, 12)  (  1, 16, 12)
  0   2.649      0   2.255      1   13.14      0   9.348      0   7.398    
   (  1, 16, 12)  (  1, 16, 12)  (  1, 14, 14)  (  1, 14, 14)  (  1, 15, 13)
  0   6.451      0   4.600      0   2.108      0   1.370      1   3.746    
   (  1, 15, 13)  (  1, 15, 13)  (  1, 13, 15)  (  1, 13, 15)  (  1, 14, 14)



 OUTPUT CONTROL FOR STRESS PERIOD    2   TIME STEP   2
    PRINT BUDGET
    SAVE HEAD FOR ALL LAYERS
    SAVE BUDGET
 UBDSV1 SAVING "         STORAGE" ON UNIT  34 AT TIME STEP  2, STRESS PERIOD   2
 UBDSV2 SAVING "   CONSTANT HEAD" ON UNIT  34 AT TIME STEP  2, STRESS PERIOD   2
 UBDSV1 SAVING "FLOW RIGHT FACE " ON UNIT  34 AT TIME STEP  2, STRESS PERIOD   2
 UBDSV1 SAVING "FLOW FRONT FACE " ON UNIT  34 AT TIME STEP  2, STRESS PERIOD   2
 UBDSV1 SAVING "FLOW LOWER FACE " ON UNIT  34 AT TIME STEP  2, STRESS PERIOD   2
 UBDSV4 SAVING "           WELLS" ON UNIT  34 AT TIME STEP  2, STRESS PERIOD   2
 UBDSV4 SAVING "   RIVER LEAKAGE" ON UNIT  34 AT TIME STEP  2, STRESS PERIOD   2
 UBDSV3 SAVING "        RECHARGE" ON UNIT  34 AT TIME STEP  2, STRESS PERIOD   2

 HEAD WILL BE SAVED ON UNIT   32 AT END OF TIME STEP   2, STRESS PERIOD    2
1
  VOLUMETRIC BUDGET FOR ENTIRE MODEL AT END OF TIME STEP  2 IN STRESS PERIOD   2
  ------------------------------------------------------------------------------

     CUMULATIVE VOLUMES      L**3       RATES FOR THIS TIME STEP      L**3/T
     ------------------                 ------------------------

           IN:                                      IN:
           ---                                      ---
             STORAGE =     9726903.0000               STORAGE =       73813.7969
       CONSTANT HEAD =           0.0000         CONSTANT HEAD =           0.0000
               WELLS =           0.0000                 WELLS =           0.0000
       RIVER LEAKAGE =           0.0000         RIVER LEAKAGE =           0.0000
            RECHARGE = 53389017088.0000              RECHARGE =      292336.1875

            TOTAL IN = 53398745088.0000              TOTAL IN =      366150.0000

          OUT:                                     OUT:
          ----                                     ----
             STORAGE =        1155.6028               STORAGE =           0.0000
       CONSTANT HEAD =           0.0000         CONSTANT HEAD =           0.0000
               WELLS = 14620611584.0000                 WELLS =      160000.0000
       RIVER LEAKAGE = 38778175488.0000         RIVER LEAKAGE =      206149.9062
            RECHARGE =           0.0000              RECHARGE =           0.0000

           TOTAL OUT = 53398790144.0000             TOTAL OUT =      366149.9062

            IN - OUT =      -45056.0000              IN - OUT =       9.3750E-02

 PERCENT DISCREPANCY =           0.00     PERCENT DISCREPANCY =           0.00






          TIME SUMMARY AT END OF TIME STEP   2 IN STRESS PERIOD    2
                    SECONDS     MINUTES      HOURS       DAYS        YEARS
                    -----------------------------------------------------------
   TIME STEP LENGTH 7.42024E+06 1.23671E+05  2061.2      85.882     0.23513    
 STRESS PERIOD TIME 1.11304E+07 1.85506E+05  3091.8      128.82     0.35270    
         TOTAL TIME 1.57791E+10 2.62985E+08 4.38309E+06 1.82629E+05  500.01    
1
 
 SOLVING FOR HEAD 
     6 CALLS TO PCG ROUTINE FOR TIME STEP   3 IN STRESS PERIOD    2
    64 TOTAL ITERATIONS

 MAXIMUM HEAD CHANGE FOR EACH ITERATION (1 INDICATES THE FIRST INNER ITERATION):

    HEAD CHANGE    HEAD CHANGE    HEAD CHANGE    HEAD CHANGE    HEAD CHANGE 
   LAYER,ROW,COL  LAYER,ROW,COL  LAYER,ROW,COL  LAYER,ROW,COL  LAYER,ROW,COL
 ---------------------------------------------------------------------------
  1  -1.692      0 -0.2961      0 -0.3262      0 -0.1720      0  0.1030    
   (  1, 13, 13)  (  5,  1, 23)  (  5,  1, 27)  (  5, 10,  2)  (  5,  5, 10)
  0  0.8056E-01  0 -0.6115E-01  0 -0.4686E-01  0 -0.2816E-01  0 -0.2150E-01
   (  5,  8,  2)  (  5,  9,  4)  (  5, 27,  1)  (  3,  6, 26)  (  5, 23,  1)
  0 -0.1187E-01  0  0.8392E-02  0  0.5625E-02  0 -0.3818E-02  0 -0.3016E-02
   (  5, 11, 12)  (  5, 27, 19)  (  5,  3,  9)  (  5,  2, 10)  (  5, 10,  4)
  0 -0.1495E-02  0  0.8342E-03  0  0.5814E-03  0  0.3320E-03  0  0.1524E-03
   (  5, 10, 25)  (  5, 20, 11)  (  5, 27,  1)  (  3, 26, 26)  (  5, 27,  2)
  1 -0.3215      0 -0.9482E-01  0  0.1648E-01  0  0.1422E-01  0  0.1388E-01
   (  1, 14, 14)  (  1, 14, 14)  (  5, 10,  3)  (  5,  9,  9)  (  5,  1, 22)
  0 -0.9019E-02  0 -0.5473E-02  0  0.4330E-02  0  0.2300E-02  0  0.2014E-02
   (  5, 27,  1)  (  5,  4,  9)  (  5,  3,  9)  (  5, 22, 10)  (  5, 27,  7)
  0 -0.1108E-02  0 -0.9774E-03  0 -0.4432E-03  0 -0.5947E-03  0  0.4456E-03
   (  5,  1, 27)  (  5, 11, 24)  (  5, 10, 11)  (  5, 27,  1)  (  5, 27,  1)
  0  0.2249E-03  0 -0.8664E-04  1 -0.5598E-01  0  0.1344E-01  0 -0.3304E-02
   (  2, 12, 13)  (  2, 14, 15)  (  1, 14, 14)  (  1, 13, 13)  (  5, 27,  1)
  0 -0.2045E-02  0  0.1486E-02  0  0.1222E-02  0 -0.8191E-03  0 -0.6029E-03
   (  1, 12, 15)  (  5,  6,  4)  (  5,  3, 11)  (  5,  6,  9)  (  5,  2, 11)
  0 -0.3869E-03  0  0.2550E-03  0  0.1295E-03  0  0.1426E-03  0 -0.7455E-04
   (  5,  1, 27)  (  5,  2, 22)  (  5,  9,  4)  (  5, 27,  1)  (  5, 25,  2)
  1 -0.5998E-02  0 -0.4663E-03  0  0.8398E-03  0 -0.3336E-03  0  0.1479E-03
   (  1, 14, 14)  (  5, 26,  2)  (  1, 13, 13)  (  5, 27,  1)  (  5,  9, 10)
  0 -0.2167E-03  0 -0.1281E-03  0  0.1012E-03  0  0.9390E-04  1  0.1241E-03
   (  1, 13, 15)  (  1, 13, 15)  (  5,  1, 27)  (  5,  3, 10)  (  5, 27,  1)
  0 -0.1958E-03  0 -0.1385E-03  0 -0.5334E-04  1  0.2980E-04
   (  1, 14, 14)  (  5, 27,  1)  (  1, 14, 14)  (  5, 22,  9)

 MAXIMUM RESIDUAL FOR EACH ITERATION (1 INDICATES THE FIRST INNER ITERATION):

    RESIDUAL       RESIDUAL       RESIDUAL       RESIDUAL       RESIDUAL    
   LAYER,ROW,COL  LAYER,ROW,COL  LAYER,ROW,COL  LAYER,ROW,COL  LAYER,ROW,COL
 ---------------------------------------------------------------------------
  1  -636.5      0  -495.2      0   254.3      0   263.9      0   267.6    
   (  1,  9,  9)  (  1,  9,  9)  (  1,  9, 27)  (  1,  9,  9)  (  1,  9,  9)
  0   158.6      0   128.5      0   106.6      0   87.15      0   64.74    
   (  1,  8, 27)  (  1,  6, 27)  (  1,  6, 27)  (  1,  1, 27)  (  1,  1, 27)
  0   47.98      0   33.72      0   20.99      0   12.45      0  -7.057    
   (  1,  1, 27)  (  1,  1, 27)  (  1,  1, 27)  (  1,  1, 27)  (  1,  1, 25)
  0  -4.996      0   3.556      0   2.298      0   1.205      0 -0.6682    
   (  1,  1, 25)  (  1,  2, 25)  (  1,  2, 25)  (  1,  2, 25)  (  1,  2, 22)
  1   1061.      0   235.9      0   209.3      0   177.1      0   147.0    
   (  1, 14, 14)  (  1, 14, 14)  (  1, 13, 15)  (  1, 13, 15)  (  1, 13, 15)
  0   120.7      0   68.64      0   36.92      0   24.13      0   12.62    
   (  1, 13, 15)  (  1, 13, 15)  (  1, 13, 15)  (  1, 13, 15)  (  1, 13, 15)
  0   10.82      0   9.730      0   7.945      0   4.772      0   2.258    
   (  1, 12, 16)  (  1, 12, 16)  (  1, 12, 16)  (  1, 16, 12)  (  1, 16, 12)
  0   1.066      0  0.5221      1   158.6      0   54.67      0   48.25    
   (  1, 16, 12)  (  1, 17, 11)  (  1, 14, 14)  (  1, 15, 13)  (  1, 15, 13)
  0   37.44      0   28.93      0   19.53      0   8.484      0   5.268    
   (  1, 15, 13)  (  1, 13, 15)  (  1, 13, 15)  (  1, 13, 15)  (  1, 15, 13)
  0   2.943      0   2.813      0   2.489      0   2.085      0   1.350    
   (  1, 16, 12)  (  1, 16, 12)  (  1, 16, 12)  (  1, 16, 12)  (  1, 16, 12)
  1   12.68      0   8.219      0   6.729      0   5.991      0   4.749    
   (  1, 14, 14)  (  1, 14, 14)  (  1, 15, 13)  (  1, 15, 13)  (  1, 15, 13)
  0   3.070      0   1.966      0   1.163      0  0.6022      1   3.704    
   (  1, 15, 13)  (  1, 13, 15)  (  1, 13, 15)  (  1, 13, 15)  (  1, 14, 14)
  0   2.046      0   1.071      0  0.8109      1  0.8617    
   (  1, 14, 14)  (  1, 14, 14)  (  1, 15, 13)  (  1, 14, 14)



 OUTPUT CONTROL FOR STRESS PERIOD    2   TIME STEP   3
    PRINT BUDGET
    SAVE HEAD FOR ALL LAYERS
    SAVE BUDGET
 UBDSV1 SAVING "         STORAGE" ON UNIT  34 AT TIME STEP  3, STRESS PERIOD   2
 UBDSV2 SAVING "   CONSTANT HEAD" ON UNIT  34 AT TIME STEP  3, STRESS PERIOD   2
 UBDSV1 SAVING "FLOW RIGHT FACE " ON UNIT  34 AT TIME STEP  3, STRESS PERIOD   2
 UBDSV1 SAVING "FLOW FRONT FACE " ON UNIT  34 AT TIME STEP  3, STRESS PERIOD   2
 UBDSV1 SAVING "FLOW LOWER FACE " ON UNIT  34 AT TIME STEP  3, STRESS PERIOD   2
 UBDSV4 SAVING "           WELLS" ON UNIT  34 AT TIME STEP  3, STRESS PERIOD   2
 UBDSV4 SAVING "   RIVER LEAKAGE" ON UNIT  34 AT TIME STEP  3, STRESS PERIOD   2
 UBDSV3 SAVING "        RECHARGE" ON UNIT  34 AT TIME STEP  3, STRESS PERIOD   2

 HEAD WILL BE SAVED ON UNIT   32 AT END OF TIME STEP   3, STRESS PERIOD    2
1
  VOLUMETRIC BUDGET FOR ENTIRE MODEL AT END OF TIME STEP  3 IN STRESS PERIOD   2
  ------------------------------------------------------------------------------

     CUMULATIVE VOLUMES      L**3       RATES FOR THIS TIME STEP      L**3/T
     ------------------                 ------------------------

           IN:                                      IN:
           ---                                      ---
             STORAGE =    20507506.0000               STORAGE =       62763.7891
       CONSTANT HEAD =           0.0000         CONSTANT HEAD =           0.0000
               WELLS =           0.0000                 WELLS =           0.0000
       RIVER LEAKAGE =           0.0000         RIVER LEAKAGE =           0.0000
            RECHARGE = 53439229952.0000              RECHARGE =      292336.1875

            TOTAL IN = 53459738624.0000              TOTAL IN =      355099.9688

          OUT:                                     OUT:
          ----                                     ----
             STORAGE =        1155.6028               STORAGE =           0.0000
       CONSTANT HEAD =           0.0000         CONSTANT HEAD =           0.0000
               WELLS = 14648093696.0000                 WELLS =      160000.0000
       RIVER LEAKAGE = 38811684864.0000         RIVER LEAKAGE =      195100.4062
            RECHARGE =           0.0000              RECHARGE =           0.0000

           TOTAL OUT = 53459779584.0000             TOTAL OUT =      355100.4062

            IN - OUT =      -40960.0000              IN - OUT =          -0.4375

 PERCENT DISCREPANCY =           0.00     PERCENT DISCREPANCY =           0.00






          TIME SUMMARY AT END OF TIME STEP   3 IN STRESS PERIOD    2
                    SECONDS     MINUTES      HOURS       DAYS        YEARS
                    -----------------------------------------------------------
   TIME STEP LENGTH 1.48405E+07 2.47341E+05  4122.4      171.76     0.47027    
 STRESS PERIOD TIME 2.59708E+07 4.32847E+05  7214.1      300.59     0.82297    
         TOTAL TIME 1.57940E+10 2.63233E+08 4.38721E+06 1.82801E+05  500.48    
1
 
 SOLVING FOR HEAD 
     6 CALLS TO PCG ROUTINE FOR TIME STEP   4 IN STRESS PERIOD    2
    68 TOTAL ITERATIONS

 MAXIMUM HEAD CHANGE FOR EACH ITERATION (1 INDICATES THE FIRST INNER ITERATION):

    HEAD CHANGE    HEAD CHANGE    HEAD CHANGE    HEAD CHANGE    HEAD CHANGE 
   LAYER,ROW,COL  LAYER,ROW,COL  LAYER,ROW,COL  LAYER,ROW,COL  LAYER,ROW,COL
 ---------------------------------------------------------------------------
  1  -1.641      0 -0.4216      0 -0.2102      0 -0.2374      0 -0.8693E-01
   (  1, 11, 10)  (  5,  1, 24)  (  5,  1, 27)  (  5, 10,  1)  (  1,  1, 22)
  0  0.6629E-01  0  0.6928E-01  0  0.5142E-01  0  0.4083E-01  0 -0.2743E-01
   (  5,  9,  4)  (  3, 12, 27)  (  5, 27, 21)  (  5, 27,  1)  (  5, 24,  1)
  0 -0.1764E-01  0 -0.1272E-01  0  0.9644E-02  0  0.7945E-02  0 -0.3897E-02
   (  5,  9, 23)  (  5, 10, 10)  (  4, 27, 18)  (  3, 27, 27)  (  5, 10,  4)
  0 -0.1512E-02  0  0.1265E-02  0 -0.8116E-03  0  0.4171E-03  0  0.2623E-03
   (  5, 11,  8)  (  5,  1, 27)  (  2,  1, 26)  (  2, 27, 27)  (  5, 25,  3)
  1 -0.3596      0 -0.9352E-01  0  0.3552E-01  0  0.2216E-01  0  0.1901E-01
   (  1, 14, 14)  (  1, 14, 14)  (  5, 10,  3)  (  5, 27,  1)  (  5,  1, 11)
  0 -0.1084E-01  0 -0.7291E-02  0 -0.6885E-02  0  0.4830E-02  0  0.3693E-02
   (  5, 11,  8)  (  5, 27,  2)  (  5,  1, 27)  (  3, 25, 10)  (  5, 10, 22)
  0  0.1752E-02  0 -0.2750E-02  0  0.1438E-02  0 -0.7305E-03  0  0.4998E-03
   (  5, 11, 10)  (  5, 27,  2)  (  5, 27,  1)  (  5, 27,  1)  (  4, 11, 25)
  0  0.3158E-03  0 -0.1742E-03  0 -0.1475E-03  0  0.6943E-04  1 -0.6752E-01
   (  2, 12, 12)  (  5,  2, 25)  (  2, 14, 14)  (  5,  4, 10)  (  1, 14, 14)
  0  0.1573E-01  0 -0.4700E-02  0 -0.3588E-02  0  0.2562E-02  0  0.1764E-02
   (  1, 13, 13)  (  5, 27,  1)  (  1, 12, 15)  (  5,  9,  2)  (  5,  5,  9)
  0  0.1300E-02  0  0.9594E-03  0 -0.5715E-03  0 -0.4386E-03  0  0.2630E-03
   (  5,  4, 23)  (  5,  1, 27)  (  5, 10, 11)  (  1, 13, 15)  (  5,  5,  9)
  0  0.1601E-03  0  0.1032E-03  0 -0.1066E-03  0 -0.7250E-04  1 -0.8003E-02
   (  5, 11,  7)  (  1, 10, 13)  (  5, 12, 11)  (  5, 27,  1)  (  1, 14, 14)
  0 -0.9978E-03  0  0.1071E-02  0 -0.3356E-03  0  0.2942E-03  0 -0.2578E-03
   (  5, 27,  1)  (  1, 13, 13)  (  5, 27,  1)  (  5, 26,  4)  (  1, 13, 15)
  0 -0.1524E-03  0 -0.1324E-03  0 -0.9200E-04  1  0.1310E-03  0 -0.3272E-03
   (  5, 12,  8)  (  5,  5, 11)  (  5,  9, 12)  (  5,  8, 10)  (  1, 14, 14)
  0 -0.1893E-03  0 -0.8931E-04  1 -0.5361E-04
   (  1, 14, 14)  (  5,  4, 10)  (  5, 27,  1)

 MAXIMUM RESIDUAL FOR EACH ITERATION (1 INDICATES THE FIRST INNER ITERATION):

    RESIDUAL       RESIDUAL       RESIDUAL       RESIDUAL       RESIDUAL    
   LAYER,ROW,COL  LAYER,ROW,COL  LAYER,ROW,COL  LAYER,ROW,COL  LAYER,ROW,COL
 ---------------------------------------------------------------------------
  1   556.2      0   537.8      0   464.8      0   331.2      0   282.0    
   (  1, 26, 27)  (  1, 26, 27)  (  1, 26, 27)  (  1,  8, 27)  (  1,  2, 27)
  0   255.7      0   217.6      0   183.5      0   144.0      0   113.3    
   (  1,  2, 27)  (  1,  1, 27)  (  1,  1, 27)  (  1,  1, 27)  (  1,  1, 27)
  0   81.40      0   52.34      0   26.17      0   20.40      0   14.93    
   (  1,  1, 27)  (  1,  1, 27)  (  1,  1, 27)  (  1,  2, 24)  (  1,  2, 25)
  0   10.41      0   6.501      0   3.110      0  -1.844      0  -1.424    
   (  1,  2, 25)  (  1,  2, 25)  (  1,  2, 25)  (  1,  2, 23)  (  1,  2, 23)
  1   1236.      0   474.1      0   260.6      0   217.9      0   187.0    
   (  1, 14, 14)  (  1, 14, 14)  (  1, 14, 14)  (  1, 13, 15)  (  1, 13, 15)
  0   166.3      0   137.7      0   83.98      0   50.38      0   31.24    
   (  1, 13, 15)  (  1, 13, 15)  (  1, 13, 15)  (  1, 13, 15)  (  1, 13, 15)
  0   16.01      0   12.71      0   11.81      0   8.592      0   5.753    
   (  1, 13, 15)  (  1, 12, 16)  (  1, 12, 16)  (  1, 12, 16)  (  1, 12, 16)
  0   3.403      0   1.277      0  0.6290      0  0.5359      1   196.2    
   (  1, 12, 16)  (  1, 12, 16)  (  1, 11, 17)  (  1, 17, 11)  (  1, 14, 14)
  0   63.09      0   62.75      0   50.44      0   41.56      0   34.29    
   (  1, 15, 13)  (  1, 15, 13)  (  1, 15, 13)  (  1, 13, 15)  (  1, 13, 15)
  0   20.40      0   11.83      0   7.841      0   3.400      0   3.460    
   (  1, 13, 15)  (  1, 15, 13)  (  1, 15, 13)  (  1, 16, 12)  (  1, 16, 12)
  0   3.074      0   2.338      0   1.658      0   1.010      1   15.45    
   (  1, 16, 12)  (  1, 16, 12)  (  1, 16, 12)  (  1, 16, 12)  (  1, 14, 14)
  0   8.810      0   8.388      0   7.165      0   5.621      0   3.778    
   (  1, 15, 13)  (  1, 15, 13)  (  1, 15, 13)  (  1, 15, 13)  (  1, 13, 15)
  0   2.548      0   1.553      0  0.6897      1   5.400      0   2.972    
   (  1, 13, 15)  (  1, 13, 15)  (  1, 13, 15)  (  1, 14, 14)  (  1, 14, 14)
  0   1.437      0   1.107      1   1.265    
   (  1, 14, 14)  (  1, 15, 13)  (  1, 14, 14)



 OUTPUT CONTROL FOR STRESS PERIOD    2   TIME STEP   4
    PRINT BUDGET
    SAVE HEAD FOR ALL LAYERS
    SAVE BUDGET
 UBDSV1 SAVING "         STORAGE" ON UNIT  34 AT TIME STEP  4, STRESS PERIOD   2
 UBDSV2 SAVING "   CONSTANT HEAD" ON UNIT  34 AT TIME STEP  4, STRESS PERIOD   2
 UBDSV1 SAVING "FLOW RIGHT FACE " ON UNIT  34 AT TIME STEP  4, STRESS PERIOD   2
 UBDSV1 SAVING "FLOW FRONT FACE " ON UNIT  34 AT TIME STEP  4, STRESS PERIOD   2
 UBDSV1 SAVING "FLOW LOWER FACE " ON UNIT  34 AT TIME STEP  4, STRESS PERIOD   2
 UBDSV4 SAVING "           WELLS" ON UNIT  34 AT TIME STEP  4, STRESS PERIOD   2
 UBDSV4 SAVING "   RIVER LEAKAGE" ON UNIT  34 AT TIME STEP  4, STRESS PERIOD   2
 UBDSV3 SAVING "        RECHARGE" ON UNIT  34 AT TIME STEP  4, STRESS PERIOD   2

 HEAD WILL BE SAVED ON UNIT   32 AT END OF TIME STEP   4, STRESS PERIOD    2
1
  VOLUMETRIC BUDGET FOR ENTIRE MODEL AT END OF TIME STEP  4 IN STRESS PERIOD   2
  ------------------------------------------------------------------------------

     CUMULATIVE VOLUMES      L**3       RATES FOR THIS TIME STEP      L**3/T
     ------------------                 ------------------------

           IN:                                      IN:
           ---                                      ---
             STORAGE =    36571768.0000               STORAGE =       46762.4062
       CONSTANT HEAD =           0.0000         CONSTANT HEAD =           0.0000
               WELLS =           0.0000                 WELLS =           0.0000
       RIVER LEAKAGE =           0.0000         RIVER LEAKAGE =           0.0000
            RECHARGE = 53539655680.0000              RECHARGE =      292336.1875

            TOTAL IN = 53576228864.0000              TOTAL IN =      339098.5938

          OUT:                                     OUT:
          ----                                     ----
             STORAGE =        1155.6028               STORAGE =           0.0000
       CONSTANT HEAD =           0.0000         CONSTANT HEAD =           0.0000
               WELLS = 14703057920.0000                 WELLS =      160000.0000
       RIVER LEAKAGE = 38873210880.0000         RIVER LEAKAGE =      179099.0156
            RECHARGE =           0.0000              RECHARGE =           0.0000

           TOTAL OUT = 53576269824.0000             TOTAL OUT =      339099.0000

            IN - OUT =      -40960.0000              IN - OUT =          -0.4062

 PERCENT DISCREPANCY =           0.00     PERCENT DISCREPANCY =           0.00






          TIME SUMMARY AT END OF TIME STEP   4 IN STRESS PERIOD    2
                    SECONDS     MINUTES      HOURS       DAYS        YEARS
                    -----------------------------------------------------------
   TIME STEP LENGTH 2.96809E+07 4.94682E+05  8244.7      343.53     0.94053    
 STRESS PERIOD TIME 5.56518E+07 9.27529E+05  15459.      644.12      1.7635    
         TOTAL TIME 1.58237E+10 2.63728E+08 4.39546E+06 1.83144E+05  501.42    
1
 
 SOLVING FOR HEAD 
     6 CALLS TO PCG ROUTINE FOR TIME STEP   5 IN STRESS PERIOD    2
    71 TOTAL ITERATIONS

 MAXIMUM HEAD CHANGE FOR EACH ITERATION (1 INDICATES THE FIRST INNER ITERATION):

    HEAD CHANGE    HEAD CHANGE    HEAD CHANGE    HEAD CHANGE    HEAD CHANGE 
   LAYER,ROW,COL  LAYER,ROW,COL  LAYER,ROW,COL  LAYER,ROW,COL  LAYER,ROW,COL
 ---------------------------------------------------------------------------
  1  -1.793      0 -0.5161      0 -0.3271      0 -0.2492      0 -0.1648    
   (  1, 27,  1)  (  5,  1, 22)  (  5,  1, 27)  (  1,  1, 11)  (  1,  1, 11)
  0 -0.1198      0  0.1046      0  0.5824E-01  0 -0.6403E-01  0 -0.3507E-01
   (  5, 25,  1)  (  5, 27,  3)  (  5, 12, 19)  (  5, 10,  9)  (  5, 12,  2)
  0  0.1983E-01  0  0.1492E-01  0 -0.1290E-01  0  0.1103E-01  0 -0.4508E-02
   (  5, 12, 17)  (  5, 27,  1)  (  5, 27,  1)  (  3, 27, 27)  (  5,  8, 10)
  0  0.3005E-02  0 -0.1667E-02  0 -0.1226E-02  0  0.8906E-03  0  0.5382E-03
   (  5, 27,  2)  (  5, 10, 25)  (  5,  3, 11)  (  5,  3, 10)  (  5, 27,  2)
  1 -0.4175      0 -0.8623E-01  0  0.6307E-01  0  0.2959E-01  0  0.2898E-01
   (  1, 14, 14)  (  1, 14, 14)  (  5, 27,  1)  (  5,  6,  6)  (  5,  2, 11)
  0 -0.1221E-01  0 -0.9929E-02  0 -0.9386E-02  0  0.9313E-02  0  0.6144E-02
   (  5,  5, 12)  (  5,  5, 23)  (  5,  1, 26)  (  5, 26,  1)  (  5,  1, 25)
  0  0.4222E-02  0 -0.4013E-02  0  0.2094E-02  0  0.1540E-02  0 -0.6345E-03
   (  5, 26,  1)  (  5, 27,  1)  (  5, 27,  1)  (  5,  1,  9)  (  5,  3, 13)
  0 -0.5446E-03  0  0.4076E-03  0 -0.2310E-03  0  0.1639E-03  0 -0.7118E-04
   (  5, 27,  1)  (  5,  2, 11)  (  5, 27,  1)  (  5,  4, 10)  (  5, 12,  4)
  1 -0.8536E-01  0  0.1771E-01  0 -0.4914E-02  0 -0.5282E-02  0 -0.3721E-02
   (  1, 14, 14)  (  1, 13, 13)  (  5,  7, 10)  (  5,  9,  4)  (  1, 12, 15)
  0  0.1972E-02  0  0.1929E-02  0  0.1706E-02  0 -0.1458E-02  0 -0.8476E-03
   (  5, 25,  6)  (  5,  9,  8)  (  5, 27,  1)  (  5, 26,  1)  (  5,  1, 26)
  0 -0.5650E-03  0  0.3548E-03  0 -0.2235E-03  0 -0.1778E-03  0 -0.8890E-04
   (  1, 13, 15)  (  5, 27,  1)  (  5, 27,  1)  (  4, 11, 11)  (  3, 27, 12)
  1 -0.1096E-01  0  0.1254E-02  0  0.1374E-02  0 -0.7500E-03  0  0.3055E-03
   (  1, 14, 14)  (  1, 13, 13)  (  5, 27,  1)  (  5, 27,  1)  (  3, 27,  8)
  0 -0.3250E-03  0 -0.2870E-03  0 -0.1475E-03  0 -0.1227E-03  0 -0.9303E-04
   (  1, 13, 15)  (  1, 13, 15)  (  5,  4, 10)  (  5,  6, 26)  (  5, 24,  8)
  1 -0.2000E-03  0 -0.6268E-03  0 -0.1940E-03  0 -0.1135E-03  0  0.7389E-04
   (  1, 14, 14)  (  1, 14, 14)  (  1, 14, 14)  (  5,  4, 11)  (  1, 13, 13)
  1  0.6137E-04
   (  5,  9,  7)

 MAXIMUM RESIDUAL FOR EACH ITERATION (1 INDICATES THE FIRST INNER ITERATION):

    RESIDUAL       RESIDUAL       RESIDUAL       RESIDUAL       RESIDUAL    
   LAYER,ROW,COL  LAYER,ROW,COL  LAYER,ROW,COL  LAYER,ROW,COL  LAYER,ROW,COL
 ---------------------------------------------------------------------------
  1   670.9      0   695.7      0   598.5      0   419.5      0   367.0    
   (  1, 26, 27)  (  1, 26, 27)  (  1, 26, 27)  (  1, 26, 27)  (  1,  2, 27)
  0   352.2      0   314.6      0   277.2      0   231.4      0   173.8    
   (  1,  2, 27)  (  1,  2, 27)  (  1,  1, 27)  (  1,  1, 27)  (  1,  1, 27)
  0   121.7      0   78.90      0  -45.74      0   32.34      0   23.70    
   (  1,  1, 27)  (  1,  1, 27)  (  1,  2, 26)  (  1,  2, 24)  (  1,  2, 25)
  0   18.24      0   11.86      0   5.181      0   3.159      0  -2.726    
   (  1,  2, 25)  (  1,  2, 25)  (  1,  2, 25)  (  1,  2, 26)  (  1,  3, 25)
  1   1534.      0   886.7      0   421.8      0   301.1      0   240.1    
   (  1, 14, 14)  (  1, 14, 14)  (  1, 14, 14)  (  1, 14, 14)  (  1, 13, 15)
  0   224.8      0   200.8      0   153.3      0   102.0      0   72.57    
   (  1, 13, 15)  (  1, 13, 15)  (  1, 13, 15)  (  1, 13, 15)  (  1, 13, 15)
  0   43.63      0   17.37      0   15.20      0   12.39      0   9.765    
   (  1, 13, 15)  (  1, 13, 15)  (  1, 12, 16)  (  1, 12, 16)  (  1, 12, 16)
  0   6.207      0   3.424      0   1.598      0  0.7209      0  0.6781    
   (  1, 12, 16)  (  1, 12, 16)  (  1, 12, 16)  (  1, 17, 11)  (  1, 17, 11)
  1   245.5      0   87.82      0   78.28      0   70.39      0   57.61    
   (  1, 14, 14)  (  1, 14, 14)  (  1, 15, 13)  (  1, 15, 13)  (  1, 13, 15)
  0   50.76      0   38.17      0   24.26      0   15.67      0   8.990    
   (  1, 13, 15)  (  1, 13, 15)  (  1, 15, 13)  (  1, 15, 13)  (  1, 15, 13)
  0   4.422      0   4.316      0   3.568      0   2.833      0   1.953    
   (  1, 16, 12)  (  1, 16, 12)  (  1, 16, 12)  (  1, 16, 12)  (  1, 16, 12)
  1   20.26      0   11.95      0   11.33      0   10.52      0   8.622    
   (  1, 14, 14)  (  1, 15, 13)  (  1, 15, 13)  (  1, 15, 13)  (  1, 15, 13)
  0   6.344      0   4.179      0   2.608      0   1.271      0  0.6756    
   (  1, 15, 13)  (  1, 13, 15)  (  1, 13, 15)  (  1, 13, 15)  (  1, 13, 15)
  1   7.630      0   3.308      0   1.653      0   1.508      0   1.316    
   (  1, 14, 14)  (  1, 14, 14)  (  1, 14, 14)  (  1, 15, 13)  (  1, 15, 13)
  1   1.322    
   (  1, 14, 14)



 OUTPUT CONTROL FOR STRESS PERIOD    2   TIME STEP   5
    PRINT BUDGET
    SAVE HEAD FOR ALL LAYERS
    SAVE BUDGET
 UBDSV1 SAVING "         STORAGE" ON UNIT  34 AT TIME STEP  5, STRESS PERIOD   2
 UBDSV2 SAVING "   CONSTANT HEAD" ON UNIT  34 AT TIME STEP  5, STRESS PERIOD   2
 UBDSV1 SAVING "FLOW RIGHT FACE " ON UNIT  34 AT TIME STEP  5, STRESS PERIOD   2
 UBDSV1 SAVING "FLOW FRONT FACE " ON UNIT  34 AT TIME STEP  5, STRESS PERIOD   2
 UBDSV1 SAVING "FLOW LOWER FACE " ON UNIT  34 AT TIME STEP  5, STRESS PERIOD   2
 UBDSV4 SAVING "           WELLS" ON UNIT  34 AT TIME STEP  5, STRESS PERIOD   2
 UBDSV4 SAVING "   RIVER LEAKAGE" ON UNIT  34 AT TIME STEP  5, STRESS PERIOD   2
 UBDSV3 SAVING "        RECHARGE" ON UNIT  34 AT TIME STEP  5, STRESS PERIOD   2

 HEAD WILL BE SAVED ON UNIT   32 AT END OF TIME STEP   5, STRESS PERIOD    2
1
  VOLUMETRIC BUDGET FOR ENTIRE MODEL AT END OF TIME STEP  5 IN STRESS PERIOD   2
  ------------------------------------------------------------------------------

     CUMULATIVE VOLUMES      L**3       RATES FOR THIS TIME STEP      L**3/T
     ------------------                 ------------------------

           IN:                                      IN:
           ---                                      ---
             STORAGE =    56186036.0000               STORAGE =       28548.1660
       CONSTANT HEAD =           0.0000         CONSTANT HEAD =           0.0000
               WELLS =           0.0000                 WELLS =           0.0000
       RIVER LEAKAGE =           0.0000         RIVER LEAKAGE =           0.0000
            RECHARGE = 53740507136.0000              RECHARGE =      292336.1875

            TOTAL IN = 53796691968.0000              TOTAL IN =      320884.3438

          OUT:                                     OUT:
          ----                                     ----
             STORAGE =        1155.6028               STORAGE =           0.0000
       CONSTANT HEAD =           0.0000         CONSTANT HEAD =           0.0000
               WELLS = 14812987392.0000                 WELLS =      160000.0000
       RIVER LEAKAGE = 38983745536.0000         RIVER LEAKAGE =      160883.8906
            RECHARGE =           0.0000              RECHARGE =           0.0000

           TOTAL OUT = 53796732928.0000             TOTAL OUT =      320883.8750

            IN - OUT =      -40960.0000              IN - OUT =           0.4688

 PERCENT DISCREPANCY =           0.00     PERCENT DISCREPANCY =           0.00






          TIME SUMMARY AT END OF TIME STEP   5 IN STRESS PERIOD    2
                    SECONDS     MINUTES      HOURS       DAYS        YEARS
                    -----------------------------------------------------------
   TIME STEP LENGTH 5.93619E+07 9.89365E+05  16489.      687.06      1.8811    
 STRESS PERIOD TIME 1.15014E+08 1.91689E+06  31948.      1331.2      3.6446    
         TOTAL TIME 1.58830E+10 2.64717E+08 4.41195E+06 1.83831E+05  503.30    
1
 
 SOLVING FOR HEAD 
     6 CALLS TO PCG ROUTINE FOR TIME STEP   6 IN STRESS PERIOD    2
    72 TOTAL ITERATIONS

 MAXIMUM HEAD CHANGE FOR EACH ITERATION (1 INDICATES THE FIRST INNER ITERATION):

    HEAD CHANGE    HEAD CHANGE    HEAD CHANGE    HEAD CHANGE    HEAD CHANGE 
   LAYER,ROW,COL  LAYER,ROW,COL  LAYER,ROW,COL  LAYER,ROW,COL  LAYER,ROW,COL
 ---------------------------------------------------------------------------
  1  -1.507      0 -0.4308      0 -0.3643      0 -0.3590      0 -0.1625    
   (  1, 27,  1)  (  5,  1, 11)  (  5,  1, 26)  (  5,  5,  6)  (  1,  1, 10)
  0  0.1128      0  0.7745E-01  0 -0.9135E-01  0 -0.7727E-01  0 -0.3671E-01
   (  5, 27,  1)  (  3, 11, 27)  (  1,  1, 24)  (  5, 10,  8)  (  1,  1, 25)
  0  0.2817E-01  0 -0.2356E-01  0  0.1406E-01  0  0.1122E-01  0 -0.8284E-02
   (  5, 13, 17)  (  5, 10, 10)  (  3, 27, 16)  (  3, 27, 27)  (  5,  2, 10)
  0  0.4233E-02  0 -0.2255E-02  0  0.2386E-02  0 -0.9812E-03  0 -0.8189E-03
   (  5,  3, 10)  (  4, 26,  1)  (  5, 27,  2)  (  4, 23,  1)  (  5,  7, 10)
  1 -0.3741      0 -0.7374E-01  0 -0.7881E-01  0  0.3465E-01  0  0.3007E-01
   (  1, 14, 14)  (  5, 26,  1)  (  1, 14, 14)  (  5,  6,  4)  (  5,  2, 10)
  0 -0.1587E-01  0 -0.1166E-01  0 -0.8237E-02  0  0.1039E-01  0  0.7992E-02
   (  5,  5, 12)  (  5, 26, 20)  (  5,  8, 10)  (  5, 27,  1)  (  5,  1, 26)
  0  0.3824E-02  0 -0.3977E-02  0  0.3050E-02  0  0.1279E-02  0 -0.9699E-03
   (  1, 13, 11)  (  5,  1, 27)  (  5, 27,  1)  (  3, 27, 11)  (  5,  1, 27)
  0 -0.6741E-03  0  0.7016E-03  0  0.4015E-03  0 -0.3368E-03  0  0.2002E-03
   (  5, 27,  2)  (  5, 27,  1)  (  2, 12, 12)  (  5, 27,  1)  (  5,  3, 10)
  1 -0.8422E-01  0  0.1274E-01  0  0.1080E-01  0 -0.4857E-02  0 -0.4589E-02
   (  1, 14, 14)  (  5, 27,  1)  (  1, 13, 13)  (  5,  9,  7)  (  5,  4, 11)
  0  0.2966E-02  0  0.3153E-02  0  0.1509E-02  0 -0.1979E-02  0 -0.9852E-03
   (  5,  6, 10)  (  5,  3, 11)  (  5, 27,  1)  (  5, 11,  9)  (  5,  1, 26)
  0  0.9477E-03  0  0.5486E-03  0 -0.4120E-03  0  0.1887E-03  0  0.8727E-04
   (  5,  1, 27)  (  5, 27,  1)  (  5,  1, 27)  (  5,  6, 10)  (  5,  1, 27)
  1 -0.1160E-01  0  0.9394E-03  0  0.9500E-03  0  0.1304E-02  0 -0.8763E-03
   (  1, 14, 14)  (  1, 13, 13)  (  1, 13, 13)  (  5, 27,  1)  (  5, 27,  1)
  0  0.3581E-03  0 -0.3845E-03  0  0.2116E-03  0 -0.1540E-03  0 -0.2307E-03
   (  5, 26,  5)  (  1, 13, 15)  (  5,  1, 27)  (  5, 10,  5)  (  5,  1, 26)
  0  0.1184E-03  0  0.7975E-04  1 -0.5898E-03  0 -0.5650E-03  0  0.1732E-03
   (  5,  3, 25)  (  5,  9, 13)  (  1, 14, 14)  (  1, 14, 14)  (  5,  3, 25)
  0  0.8366E-04  1 -0.7097E-04
   (  5, 11,  6)  (  5, 10,  5)

 MAXIMUM RESIDUAL FOR EACH ITERATION (1 INDICATES THE FIRST INNER ITERATION):

    RESIDUAL       RESIDUAL       RESIDUAL       RESIDUAL       RESIDUAL    
   LAYER,ROW,COL  LAYER,ROW,COL  LAYER,ROW,COL  LAYER,ROW,COL  LAYER,ROW,COL
 ---------------------------------------------------------------------------
  1   523.2      0   601.3      0   556.1      0   427.3      0   371.2    
   (  1, 26, 27)  (  1, 26, 27)  (  1, 26, 27)  (  1, 26, 27)  (  1,  9, 27)
  0   340.4      0   315.7      0   284.8      0   246.3      0   200.4    
   (  1,  8, 27)  (  1,  2, 27)  (  1,  2, 27)  (  1,  1, 27)  (  1,  1, 27)
  0   148.6      0   98.24      0  -57.30      0   39.67      0   30.28    
   (  1,  1, 27)  (  1,  1, 27)  (  1,  2, 26)  (  1,  2, 24)  (  1,  2, 24)
  0   21.53      0   14.20      0   11.09      0   6.715      0   4.197    
   (  1,  2, 25)  (  1,  2, 25)  (  1,  2, 25)  (  1,  2, 25)  (  1,  2, 26)
  1   1511.      0   1202.      0   558.4      0   388.7      0   227.2    
   (  1, 14, 14)  (  1, 14, 14)  (  1, 14, 14)  (  1, 14, 14)  (  1, 13, 15)
  0   224.6      0   208.5      0   179.0      0   133.3      0   100.9    
   (  1, 13, 15)  (  1, 13, 15)  (  1, 13, 15)  (  1, 13, 15)  (  1, 13, 15)
  0   57.35      0   32.44      0   14.99      0   13.32      0   11.30    
   (  1, 13, 15)  (  1, 13, 15)  (  1, 13, 15)  (  1, 12, 16)  (  1, 12, 16)
  0   8.348      0   7.280      0   4.993      0   2.409      0   1.019    
   (  1, 12, 16)  (  1, 12, 16)  (  1, 12, 16)  (  1, 12, 16)  (  1, 16, 12)
  1   238.1      0   154.8      0   76.17      0   74.57      0   65.53    
   (  1, 14, 14)  (  1, 14, 14)  (  1, 15, 13)  (  1, 15, 13)  (  1, 15, 13)
  0   57.81      0   47.83      0   36.08      0   22.33      0   14.17    
   (  1, 13, 15)  (  1, 13, 15)  (  1, 13, 15)  (  1, 15, 13)  (  1, 15, 13)
  0   6.455      0   4.301      0   4.022      0   3.395      0   2.643    
   (  1, 15, 13)  (  1, 16, 12)  (  1, 16, 12)  (  1, 16, 12)  (  1, 16, 12)
  1   20.76      0   12.72      0   12.33      0   11.62      0   9.797    
   (  1, 14, 14)  (  1, 14, 14)  (  1, 15, 13)  (  1, 15, 13)  (  1, 15, 13)
  0   7.988      0   5.274      0   3.867      0   2.579      0   1.341    
   (  1, 15, 13)  (  1, 13, 15)  (  1, 13, 15)  (  1, 13, 15)  (  1, 13, 15)
  0  0.7057      0  0.7202      1   6.027      0   2.143      0   1.634    
   (  1, 16, 12)  (  1, 16, 12)  (  1, 14, 14)  (  1, 14, 14)  (  1, 15, 13)
  0   1.553      1   1.770    
   (  1, 15, 13)  (  1, 14, 14)



 OUTPUT CONTROL FOR STRESS PERIOD    2   TIME STEP   6
    PRINT BUDGET
    SAVE HEAD FOR ALL LAYERS
    SAVE BUDGET
 UBDSV1 SAVING "         STORAGE" ON UNIT  34 AT TIME STEP  6, STRESS PERIOD   2
 UBDSV2 SAVING "   CONSTANT HEAD" ON UNIT  34 AT TIME STEP  6, STRESS PERIOD   2
 UBDSV1 SAVING "FLOW RIGHT FACE " ON UNIT  34 AT TIME STEP  6, STRESS PERIOD   2
 UBDSV1 SAVING "FLOW FRONT FACE " ON UNIT  34 AT TIME STEP  6, STRESS PERIOD   2
 UBDSV1 SAVING "FLOW LOWER FACE " ON UNIT  34 AT TIME STEP  6, STRESS PERIOD   2
 UBDSV4 SAVING "           WELLS" ON UNIT  34 AT TIME STEP  6, STRESS PERIOD   2
 UBDSV4 SAVING "   RIVER LEAKAGE" ON UNIT  34 AT TIME STEP  6, STRESS PERIOD   2
 UBDSV3 SAVING "        RECHARGE" ON UNIT  34 AT TIME STEP  6, STRESS PERIOD   2

 HEAD WILL BE SAVED ON UNIT   32 AT END OF TIME STEP   6, STRESS PERIOD    2
1
  VOLUMETRIC BUDGET FOR ENTIRE MODEL AT END OF TIME STEP  6 IN STRESS PERIOD   2
  ------------------------------------------------------------------------------

     CUMULATIVE VOLUMES      L**3       RATES FOR THIS TIME STEP      L**3/T
     ------------------                 ------------------------

           IN:                                      IN:
           ---                                      ---
             STORAGE =    73805200.0000               STORAGE =       12822.1650
       CONSTANT HEAD =           0.0000         CONSTANT HEAD =           0.0000
               WELLS =           0.0000                 WELLS =           0.0000
       RIVER LEAKAGE =           0.0000         RIVER LEAKAGE =           0.0000
            RECHARGE = 54142210048.0000              RECHARGE =      292336.1875

            TOTAL IN = 54216015872.0000              TOTAL IN =      305158.3438

          OUT:                                     OUT:
          ----                                     ----
             STORAGE =        1155.6028               STORAGE =           0.0000
       CONSTANT HEAD =           0.0000         CONSTANT HEAD =           0.0000
               WELLS = 15032846336.0000                 WELLS =      160000.0000
       RIVER LEAKAGE = 39183212544.0000         RIVER LEAKAGE =      145158.7031
            RECHARGE =           0.0000              RECHARGE =           0.0000

           TOTAL OUT = 54216060928.0000             TOTAL OUT =      305158.6875

            IN - OUT =      -45056.0000              IN - OUT =          -0.3438

 PERCENT DISCREPANCY =           0.00     PERCENT DISCREPANCY =           0.00






          TIME SUMMARY AT END OF TIME STEP   6 IN STRESS PERIOD    2
                    SECONDS     MINUTES      HOURS       DAYS        YEARS
                    -----------------------------------------------------------
   TIME STEP LENGTH 1.18724E+08 1.97873E+06  32979.      1374.1      3.7621    
 STRESS PERIOD TIME 2.33737E+08 3.89562E+06  64927.      2705.3      7.4067    
         TOTAL TIME 1.60017E+10 2.66696E+08 4.44493E+06 1.85205E+05  507.06    
1
 
 SOLVING FOR HEAD 
     6 CALLS TO PCG ROUTINE FOR TIME STEP   7 IN STRESS PERIOD    2
    72 TOTAL ITERATIONS

 MAXIMUM HEAD CHANGE FOR EACH ITERATION (1 INDICATES THE FIRST INNER ITERATION):

    HEAD CHANGE    HEAD CHANGE    HEAD CHANGE    HEAD CHANGE    HEAD CHANGE 
   LAYER,ROW,COL  LAYER,ROW,COL  LAYER,ROW,COL  LAYER,ROW,COL  LAYER,ROW,COL
 ---------------------------------------------------------------------------
  1 -0.7604      0 -0.2166      0 -0.2438      0 -0.2476      0 -0.1080    
   (  1, 27,  2)  (  5,  1, 10)  (  5,  1, 24)  (  5,  7,  6)  (  1,  1, 10)
  0 -0.1001      0 -0.6570E-01  0 -0.8428E-01  0 -0.4700E-01  0 -0.2290E-01
   (  1,  1, 11)  (  5, 27,  1)  (  2,  1, 10)  (  1,  1, 25)  (  1,  1, 25)
  0 -0.2449E-01  0  0.1452E-01  0 -0.1069E-01  0  0.6925E-02  0 -0.5113E-02
   (  5,  2, 10)  (  5, 23, 19)  (  5,  2,  6)  (  5, 14, 16)  (  5, 10, 10)
  0 -0.4624E-02  0  0.3325E-02  0  0.1435E-02  0 -0.9420E-03  0  0.7258E-03
   (  5, 27,  1)  (  5, 26,  8)  (  5,  2, 27)  (  5, 10,  4)  (  5, 18,  7)
  1 -0.2118      0 -0.4218E-01  0 -0.6082E-01  0  0.2338E-01  0  0.1442E-01
   (  1, 14, 14)  (  5, 27,  1)  (  1, 14, 14)  (  5, 23,  9)  (  5,  3, 11)
  0 -0.1073E-01  0 -0.6844E-02  0 -0.7192E-02  0  0.7665E-02  0 -0.4054E-02
   (  5,  5, 11)  (  5,  7, 24)  (  5, 27,  1)  (  5,  9,  9)  (  5, 11,  8)
  0  0.2740E-02  0 -0.2477E-02  0  0.2121E-02  0 -0.1293E-02  0  0.1115E-02
   (  5, 10,  6)  (  5, 27,  1)  (  5, 27,  1)  (  5, 27,  1)  (  5, 26,  4)
  0 -0.7052E-03  0 -0.5070E-03  0  0.3842E-03  0 -0.2576E-03  0  0.1680E-03
   (  4, 27, 11)  (  5,  6, 26)  (  5,  1,  9)  (  5, 27,  1)  (  5, 24, 11)
  1 -0.5135E-01  0  0.5450E-02  0  0.7039E-02  0  0.4816E-02  0  0.3746E-02
   (  1, 14, 14)  (  5, 10,  4)  (  1, 13, 13)  (  5, 27,  1)  (  1, 13, 13)
  0  0.2055E-02  0 -0.1637E-02  0 -0.1457E-02  0 -0.1157E-02  0  0.9946E-03
   (  5,  7, 11)  (  1, 13, 15)  (  1, 13, 15)  (  5, 10,  9)  (  1, 11, 13)
  0 -0.5329E-03  0  0.2856E-03  0  0.2341E-03  0 -0.1750E-03  0  0.1138E-03
   (  5,  2, 10)  (  5, 27,  1)  (  3, 10, 13)  (  5, 10,  3)  (  5, 11,  3)
  0 -0.1087E-03  0 -0.6536E-04  1 -0.7774E-02  0  0.5111E-03  0  0.1007E-02
   (  5, 27,  1)  (  5,  4,  7)  (  1, 14, 14)  (  5,  9,  4)  (  1, 13, 13)
  0  0.8348E-03  0  0.3439E-03  0 -0.3394E-03  0  0.2220E-03  0 -0.2171E-03
   (  5, 27,  1)  (  5,  4,  7)  (  1, 13, 15)  (  5,  8, 10)  (  1, 13, 15)
  0 -0.1193E-03  0 -0.1248E-03  0  0.6182E-04  1 -0.4855E-03  0 -0.3289E-03
   (  5, 24,  9)  (  5, 27,  1)  (  5, 10, 12)  (  1, 14, 14)  (  1, 14, 14)
  0  0.8644E-04  1 -0.5532E-04
   (  5,  9, 24)  (  5,  9, 24)

 MAXIMUM RESIDUAL FOR EACH ITERATION (1 INDICATES THE FIRST INNER ITERATION):

    RESIDUAL       RESIDUAL       RESIDUAL       RESIDUAL       RESIDUAL    
   LAYER,ROW,COL  LAYER,ROW,COL  LAYER,ROW,COL  LAYER,ROW,COL  LAYER,ROW,COL
 ---------------------------------------------------------------------------
  1   254.1      0   321.2      0   318.1      0   282.1      0   243.2    
   (  1, 26, 27)  (  1, 26, 27)  (  1, 26, 27)  (  1, 26, 27)  (  1, 26, 27)
  0   221.6      0   195.0      0   188.8      0   155.8      0   131.9    
   (  1,  9, 27)  (  1,  1, 25)  (  1,  2, 27)  (  1,  1, 27)  (  1,  1, 27)
  0   102.9      0   70.17      0  -41.84      0   26.37      0   21.99    
   (  1,  1, 27)  (  1,  1, 27)  (  1,  2, 26)  (  1,  2, 24)  (  1,  2, 24)
  0   18.84      0   14.53      0   10.13      0   6.558      0   5.218    
   (  1,  2, 24)  (  1,  2, 25)  (  1,  2, 25)  (  1,  2, 25)  (  1,  2, 25)
  1   979.3      0   872.8      0   438.1      0   319.9      0   187.9    
   (  1, 14, 14)  (  1, 14, 14)  (  1, 14, 14)  (  1, 14, 14)  (  1, 14, 14)
  0   141.9      0   134.3      0   118.9      0   98.79      0   69.10    
   (  1, 13, 15)  (  1, 13, 15)  (  1, 13, 15)  (  1, 13, 15)  (  1, 13, 15)
  0   44.89      0   28.32      0   12.12      0   8.489      0   8.164    
   (  1, 13, 15)  (  1, 13, 15)  (  1, 13, 15)  (  1, 12, 16)  (  1, 12, 16)
  0   7.086      0   5.696      0   4.001      0   2.389      0   1.497    
   (  1, 12, 16)  (  1, 12, 16)  (  1, 12, 16)  (  1, 12, 16)  (  1, 16, 12)
  1   154.5      0   131.0      0   57.04      0   47.35      0   44.55    
   (  1, 14, 14)  (  1, 14, 14)  (  1, 14, 14)  (  1, 15, 13)  (  1, 15, 13)
  0   40.83      0   33.48      0   26.30      0   19.71      0   9.859    
   (  1, 15, 13)  (  1, 13, 15)  (  1, 13, 15)  (  1, 13, 15)  (  1, 15, 13)
  0   5.758      0   2.964      0   2.672      0   2.303      0   1.822    
   (  1, 15, 13)  (  1, 15, 13)  (  1, 16, 12)  (  1, 16, 12)  (  1, 16, 12)
  0   1.667      0   1.124      1   13.21      0   11.02      0   8.092    
   (  1, 16, 12)  (  1, 16, 12)  (  1, 14, 14)  (  1, 14, 14)  (  1, 15, 13)
  0   7.794      0   7.285      0   5.459      0   4.397      0   2.786    
   (  1, 15, 13)  (  1, 15, 13)  (  1, 15, 13)  (  1, 15, 13)  (  1, 13, 15)
  0   1.900      0  0.9912      0  0.4744      1   3.846      0   1.631    
   (  1, 13, 15)  (  1, 13, 15)  (  1, 16, 12)  (  1, 14, 14)  (  1, 14, 14)
  0   1.150      1   1.722    
   (  1, 15, 13)  (  1, 14, 14)



 OUTPUT CONTROL FOR STRESS PERIOD    2   TIME STEP   7
    PRINT BUDGET
    SAVE HEAD FOR ALL LAYERS
    SAVE BUDGET
 UBDSV1 SAVING "         STORAGE" ON UNIT  34 AT TIME STEP  7, STRESS PERIOD   2
 UBDSV2 SAVING "   CONSTANT HEAD" ON UNIT  34 AT TIME STEP  7, STRESS PERIOD   2
 UBDSV1 SAVING "FLOW RIGHT FACE " ON UNIT  34 AT TIME STEP  7, STRESS PERIOD   2
 UBDSV1 SAVING "FLOW FRONT FACE " ON UNIT  34 AT TIME STEP  7, STRESS PERIOD   2
 UBDSV1 SAVING "FLOW LOWER FACE " ON UNIT  34 AT TIME STEP  7, STRESS PERIOD   2
 UBDSV4 SAVING "           WELLS" ON UNIT  34 AT TIME STEP  7, STRESS PERIOD   2
 UBDSV4 SAVING "   RIVER LEAKAGE" ON UNIT  34 AT TIME STEP  7, STRESS PERIOD   2
 UBDSV3 SAVING "        RECHARGE" ON UNIT  34 AT TIME STEP  7, STRESS PERIOD   2

 HEAD WILL BE SAVED ON UNIT   32 AT END OF TIME STEP   7, STRESS PERIOD    2
1
  VOLUMETRIC BUDGET FOR ENTIRE MODEL AT END OF TIME STEP  7 IN STRESS PERIOD   2
  ------------------------------------------------------------------------------

     CUMULATIVE VOLUMES      L**3       RATES FOR THIS TIME STEP      L**3/T
     ------------------                 ------------------------

           IN:                                      IN:
           ---                                      ---
             STORAGE =    84142712.0000               STORAGE =        3761.5081
       CONSTANT HEAD =           0.0000         CONSTANT HEAD =           0.0000
               WELLS =           0.0000                 WELLS =           0.0000
       RIVER LEAKAGE =           0.0000         RIVER LEAKAGE =           0.0000
            RECHARGE = 54945619968.0000              RECHARGE =      292336.1875

            TOTAL IN = 55029764096.0000              TOTAL IN =      296097.6875

          OUT:                                     OUT:
          ----                                     ----
             STORAGE =        1155.6028               STORAGE =           0.0000
       CONSTANT HEAD =           0.0000         CONSTANT HEAD =           0.0000
               WELLS = 15472564224.0000                 WELLS =      160000.0000
       RIVER LEAKAGE = 39557242880.0000         RIVER LEAKAGE =      136098.0000
            RECHARGE =           0.0000              RECHARGE =           0.0000

           TOTAL OUT = 55029809152.0000             TOTAL OUT =      296098.0000

            IN - OUT =      -45056.0000              IN - OUT =          -0.3125

 PERCENT DISCREPANCY =           0.00     PERCENT DISCREPANCY =           0.00






          TIME SUMMARY AT END OF TIME STEP   7 IN STRESS PERIOD    2
                    SECONDS     MINUTES      HOURS       DAYS        YEARS
                    -----------------------------------------------------------
   TIME STEP LENGTH 2.37448E+08 3.95746E+06  65958.      2748.2      7.5243    
 STRESS PERIOD TIME 4.71185E+08 7.85308E+06 1.30885E+05  5453.5      14.931    
         TOTAL TIME 1.62392E+10 2.70653E+08 4.51088E+06 1.87954E+05  514.59    
1
 
 SOLVING FOR HEAD 
     5 CALLS TO PCG ROUTINE FOR TIME STEP   8 IN STRESS PERIOD    2
    64 TOTAL ITERATIONS

 MAXIMUM HEAD CHANGE FOR EACH ITERATION (1 INDICATES THE FIRST INNER ITERATION):

    HEAD CHANGE    HEAD CHANGE    HEAD CHANGE    HEAD CHANGE    HEAD CHANGE 
   LAYER,ROW,COL  LAYER,ROW,COL  LAYER,ROW,COL  LAYER,ROW,COL  LAYER,ROW,COL
 ---------------------------------------------------------------------------
  1 -0.2251      0 -0.7394E-01  0 -0.9568E-01  0 -0.9054E-01  0 -0.4491E-01
   (  1, 27,  2)  (  1, 27,  7)  (  5, 27,  1)  (  5,  7,  6)  (  1,  1,  9)
  0 -0.4153E-01  0 -0.3696E-01  0 -0.2683E-01  0 -0.2002E-01  0 -0.1182E-01
   (  1,  1, 11)  (  5, 27,  1)  (  2,  1,  8)  (  1,  1, 24)  (  5,  3, 10)
  0 -0.6483E-02  0 -0.6675E-02  0 -0.3839E-02  0 -0.2220E-02  0  0.3831E-02
   (  1,  1, 26)  (  5,  9,  5)  (  5, 10, 10)  (  5, 27,  1)  (  5, 27,  1)
  0 -0.2168E-02  0 -0.1312E-02  0  0.5625E-03  0 -0.4473E-03  0 -0.3532E-03
   (  3, 22,  1)  (  5,  1, 27)  (  5,  2, 27)  (  5, 10,  6)  (  1,  7, 10)
  1 -0.6599E-01  0 -0.1478E-01  0 -0.2506E-01  0  0.8052E-02  0  0.5912E-02
   (  1, 14, 14)  (  5, 26,  1)  (  1, 14, 14)  (  5, 23, 10)  (  1, 12, 12)
  0 -0.4528E-02  0  0.5400E-02  0 -0.3634E-02  0 -0.3076E-02  0  0.1695E-02
   (  5,  5, 11)  (  5,  4,  9)  (  5, 27,  1)  (  5,  3, 24)  (  5, 27,  1)
  0  0.1170E-02  0 -0.7202E-03  0  0.5735E-03  0  0.4957E-03  0 -0.4815E-03
   (  5,  1, 26)  (  1, 13, 15)  (  5,  3,  6)  (  4,  6,  1)  (  5, 27,  1)
  0  0.3248E-03  0 -0.2201E-03  0  0.1493E-03  0  0.8462E-04  1 -0.1761E-01
   (  2,  9,  1)  (  5, 11, 11)  (  4,  1,  9)  (  5,  1, 27)  (  1, 14, 14)
  0  0.2220E-02  0 -0.2038E-02  0  0.2154E-02  0  0.2541E-02  0  0.6760E-03
   (  5, 10,  3)  (  5, 27,  3)  (  5, 27,  1)  (  1, 13, 13)  (  5,  6, 11)
  0 -0.8095E-03  0  0.6186E-03  0  0.5302E-03  0 -0.3639E-03  0  0.1969E-03
   (  1, 12, 15)  (  5, 27,  1)  (  5,  2, 10)  (  5,  3, 11)  (  5, 11, 25)
  0  0.2134E-03  0 -0.1216E-03  0 -0.1008E-03  0  0.1036E-03  0  0.3845E-04
   (  5,  1, 26)  (  5,  1, 25)  (  5, 27,  2)  (  5, 27,  1)  (  1, 10, 13)
  1 -0.2600E-02  0 -0.3297E-03  0  0.3106E-03  0 -0.2301E-03  0  0.2721E-03
   (  1, 14, 14)  (  5, 26, 10)  (  5, 27,  1)  (  5, 27,  4)  (  1, 13, 13)
  0 -0.1270E-03  0  0.1117E-03  0 -0.9854E-04  1 -0.6217E-04
   (  5,  1, 27)  (  5,  7, 10)  (  1, 13, 15)  (  5,  4, 25)

 MAXIMUM RESIDUAL FOR EACH ITERATION (1 INDICATES THE FIRST INNER ITERATION):

    RESIDUAL       RESIDUAL       RESIDUAL       RESIDUAL       RESIDUAL    
   LAYER,ROW,COL  LAYER,ROW,COL  LAYER,ROW,COL  LAYER,ROW,COL  LAYER,ROW,COL
 ---------------------------------------------------------------------------
  1   72.81      0   98.47      0   105.6      0   103.7      0   91.28    
   (  1, 26, 27)  (  1, 26, 27)  (  1, 26, 27)  (  1, 26, 27)  (  1, 26, 27)
  0   81.01      0   71.80      0   68.48      0   61.92      0   52.38    
   (  1,  9, 27)  (  1,  8, 27)  (  1,  2, 27)  (  1,  2, 27)  (  1,  1, 27)
  0   42.62      0   31.49      0  -18.52      0  -12.50      0   9.089    
   (  1,  1, 27)  (  1,  1, 27)  (  1,  2, 26)  (  1,  2, 26)  (  1,  2, 24)
  0   8.730      0   6.233      0   4.338      0   3.869      0   2.413    
   (  1,  2, 24)  (  1,  2, 24)  (  1,  2, 25)  (  1,  2, 25)  (  1,  2, 25)
  1   369.0      0   338.3      0   196.3      0   153.9      0   92.05    
   (  1, 14, 14)  (  1, 14, 14)  (  1, 14, 14)  (  1, 14, 14)  (  1, 14, 14)
  0   52.05      0   48.64      0   45.44      0   39.58      0   30.23    
   (  1, 14, 14)  (  1, 13, 15)  (  1, 13, 15)  (  1, 13, 15)  (  1, 13, 15)
  0   21.13      0   13.06      0   6.811      0   2.956      0   2.987    
   (  1, 13, 15)  (  1, 13, 15)  (  1, 13, 15)  (  1, 12, 16)  (  1, 12, 16)
  0   2.712      0   2.293      0   1.722      0   1.201      1   56.68    
   (  1, 12, 16)  (  1, 12, 16)  (  1, 12, 16)  (  1, 16, 12)  (  1, 14, 14)
  0   48.37      0   29.87      0   20.38      0   16.48      0   15.78    
   (  1, 14, 14)  (  1, 14, 14)  (  1, 14, 14)  (  1, 15, 13)  (  1, 15, 13)
  0   12.60      0   10.54      0   8.227      0   4.673      0   2.825    
   (  1, 15, 13)  (  1, 13, 15)  (  1, 13, 15)  (  1, 15, 13)  (  1, 15, 13)
  0   1.390      0  0.9643      0  0.9321      0  0.8717      0  0.7062    
   (  1, 15, 13)  (  1, 16, 12)  (  1, 16, 12)  (  1, 16, 12)  (  1, 16, 12)
  1   5.632      0   3.945      0   3.152      0   2.921      0   2.756    
   (  1, 14, 14)  (  1, 14, 14)  (  1, 14, 14)  (  1, 15, 13)  (  1, 15, 13)
  0   2.362      0   1.952      0   1.324      1   2.427    
   (  1, 15, 13)  (  1, 15, 13)  (  1, 13, 15)  (  1, 14, 14)



 OUTPUT CONTROL FOR STRESS PERIOD    2   TIME STEP   8
    PRINT BUDGET
    PRINT HEAD FOR ALL LAYERS
    SAVE HEAD FOR ALL LAYERS
    SAVE BUDGET
 UBDSV1 SAVING "         STORAGE" ON UNIT  34 AT TIME STEP  8, STRESS PERIOD   2
 UBDSV2 SAVING "   CONSTANT HEAD" ON UNIT  34 AT TIME STEP  8, STRESS PERIOD   2
 UBDSV1 SAVING "FLOW RIGHT FACE " ON UNIT  34 AT TIME STEP  8, STRESS PERIOD   2
 UBDSV1 SAVING "FLOW FRONT FACE " ON UNIT  34 AT TIME STEP  8, STRESS PERIOD   2
 UBDSV1 SAVING "FLOW LOWER FACE " ON UNIT  34 AT TIME STEP  8, STRESS PERIOD   2
 UBDSV4 SAVING "           WELLS" ON UNIT  34 AT TIME STEP  8, STRESS PERIOD   2
 UBDSV4 SAVING "   RIVER LEAKAGE" ON UNIT  34 AT TIME STEP  8, STRESS PERIOD   2
 UBDSV3 SAVING "        RECHARGE" ON UNIT  34 AT TIME STEP  8, STRESS PERIOD   2
1
              HEAD IN LAYER   1 AT END OF TIME STEP   8 IN STRESS PERIOD    2
  ---------------------------------------------------------------------------

           1       2       3       4       5       6       7       8       9      10      11      12      13      14      15
          16      17      18      19      20      21      22      23      24      25      26      27
 ...........................................................................................................................
   1   295.01  294.95  294.81  294.61  294.34  294.02  293.65  293.24  292.84  292.54  292.32  292.16  292.06  291.99  291.92
       291.81  291.64  291.39  291.02  290.46  289.74  288.92  287.97  286.87  285.56  284.01  282.15
   2   294.99  294.92  294.78  294.57  294.30  293.97  293.59  293.17  292.77  292.46  292.24  292.08  291.98  291.91  291.84
       291.73  291.56  291.31  290.94  290.39  289.68  288.87  287.93  286.84  285.54  284.00  282.14
   3   294.94  294.87  294.72  294.50  294.22  293.87  293.48  293.03  292.61  292.30  292.08  291.92  291.81  291.74  291.68
       291.57  291.40  291.15  290.79  290.25  289.56  288.77  287.85  286.78  285.50  283.97  282.13
   4   294.88  294.80  294.64  294.41  294.10  293.73  293.29  292.82  292.38  292.05  291.82  291.66  291.55  291.48  291.41
       291.31  291.14  290.90  290.55  290.03  289.37  288.62  287.74  286.69  285.43  283.93  282.11
   5   294.80  294.71  294.54  294.28  293.95  293.53  293.05  292.52  292.04  291.69  291.45  291.28  291.17  291.11  291.04
       290.93  290.77  290.54  290.21  289.73  289.13  288.42  287.59  286.58  285.35  283.87  282.08
   6   294.72  294.62  294.43  294.15  293.77  293.30  292.75  292.14  291.59  291.20  290.94  290.76  290.65  290.58  290.52
       290.41  290.25  290.04  289.75  289.34  288.82  288.19  287.41  286.45  285.26  283.82  282.05
   7   294.63  294.53  294.32  294.00  293.57  293.04  292.39  291.66  290.99  290.53  290.23  290.04  289.92  289.85  289.79
       289.68  289.54  289.36  289.14  288.85  288.45  287.92  287.22  286.31  285.17  283.76  282.02
   8   294.56  294.44  294.22  293.87  293.39  292.77  292.01  291.10  290.22  289.61  289.22  288.99  288.86  288.79  288.72
       288.63  288.52  288.42  288.35  288.27  288.05  287.65  287.03  286.19  285.09  283.71  282.00
   9   294.51  294.39  294.15  293.78  293.26  292.57  291.69  290.58  289.39  288.48  287.89  287.56  287.40  287.32  287.26
       287.19  287.18  287.27  287.50  287.73  287.72  287.44  286.90  286.10  285.03  283.67  281.98
  10   294.49  294.36  294.11  293.73  293.19  292.47  291.52  290.25  288.77  287.46  286.50  285.92  285.68  285.58  285.53
       285.55  285.77  286.24  286.86  287.39  287.54  287.33  286.83  286.05  285.00  283.65  281.97
  11   294.47  294.35  294.10  293.71  293.16  292.42  291.43  290.09  288.40  286.72  285.25  284.16  283.66  283.52  283.51
       283.78  284.51  285.49  286.49  287.22  287.45  287.28  286.80  286.03  284.99  283.65  281.97
  12   294.47  294.35  294.09  293.70  293.15  292.40  291.40  290.02  288.23  286.32  284.34  282.36  281.05  280.66  280.90
       281.97  283.58  285.08  286.31  287.15  287.41  287.26  286.79  286.03  284.98  283.64  281.97
  13   294.47  294.35  294.09  293.70  293.14  292.39  291.39  289.99  288.18  286.18  283.95  281.17  278.11  276.09  277.94
       280.77  283.20  284.94  286.26  287.12  287.40  287.26  286.78  286.02  284.98  283.64  281.97
  14   294.47  294.34  294.09  293.70  293.14  292.39  291.39  289.99  288.18  286.16  283.88  280.86  276.18  266.44  276.01
       280.45  283.13  284.92  286.25  287.12  287.40  287.25  286.78  286.02  284.98  283.64  281.97
  15   294.47  294.35  294.09  293.70  293.14  292.39  291.39  289.99  288.18  286.18  283.95  281.17  278.11  276.09  277.94
       280.77  283.20  284.94  286.26  287.12  287.40  287.26  286.78  286.02  284.98  283.64  281.97
  16   294.47  294.35  294.09  293.70  293.15  292.40  291.40  290.02  288.23  286.32  284.34  282.36  281.05  280.66  280.90
       281.97  283.58  285.08  286.31  287.15  287.41  287.26  286.79  286.03  284.98  283.64  281.97
  17   294.47  294.35  294.10  293.71  293.16  292.42  291.43  290.09  288.40  286.72  285.25  284.16  283.66  283.52  283.51
       283.78  284.51  285.49  286.49  287.22  287.45  287.28  286.80  286.03  284.99  283.65  281.97
  18   294.49  294.36  294.11  293.73  293.19  292.47  291.52  290.25  288.77  287.46  286.50  285.92  285.68  285.58  285.53
       285.55  285.77  286.24  286.86  287.39  287.54  287.33  286.83  286.05  285.00  283.65  281.97
  19   294.51  294.39  294.15  293.78  293.26  292.57  291.69  290.58  289.39  288.48  287.89  287.56  287.40  287.32  287.26
       287.19  287.18  287.27  287.50  287.73  287.72  287.44  286.90  286.10  285.03  283.67  281.98
  20   294.56  294.44  294.22  293.87  293.39  292.77  292.01  291.10  290.22  289.61  289.22  288.99  288.86  288.79  288.72
       288.63  288.52  288.42  288.35  288.27  288.05  287.65  287.03  286.19  285.09  283.71  282.00
  21   294.63  294.53  294.32  294.00  293.57  293.04  292.39  291.66  290.99  290.53  290.23  290.04  289.92  289.85  289.79
       289.68  289.54  289.36  289.14  288.85  288.45  287.92  287.22  286.31  285.17  283.76  282.02
  22   294.72  294.62  294.43  294.15  293.77  293.30  292.75  292.14  291.59  291.20  290.94  290.76  290.65  290.58  290.52
       290.41  290.25  290.04  289.75  289.34  288.82  288.19  287.41  286.45  285.26  283.82  282.05
  23   294.80  294.71  294.54  294.28  293.95  293.53  293.05  292.52  292.04  291.69  291.45  291.28  291.17  291.11  291.04
       290.93  290.77  290.54  290.21  289.73  289.13  288.42  287.59  286.58  285.35  283.87  282.08
  24   294.88  294.80  294.64  294.41  294.10  293.73  293.29  292.82  292.38  292.05  291.82  291.66  291.55  291.48  291.41
       291.31  291.14  290.90  290.55  290.03  289.37  288.62  287.74  286.69  285.43  283.93  282.11
  25   294.94  294.87  294.72  294.50  294.22  293.87  293.48  293.03  292.61  292.30  292.08  291.92  291.81  291.74  291.68
       291.57  291.40  291.15  290.79  290.25  289.56  288.77  287.85  286.78  285.50  283.97  282.13
  26   294.99  294.92  294.78  294.57  294.30  293.97  293.59  293.17  292.77  292.46  292.24  292.08  291.98  291.91  291.84
       291.73  291.56  291.31  290.94  290.39  289.68  288.87  287.93  286.84  285.54  284.00  282.14
  27   295.01  294.95  294.81  294.61  294.34  294.02  293.65  293.24  292.84  292.54  292.32  292.16  292.06  291.99  291.92
       291.81  291.64  291.39  291.02  290.46  289.74  288.92  287.97  286.87  285.56  284.01  282.15
1
              HEAD IN LAYER   2 AT END OF TIME STEP   8 IN STRESS PERIOD    2
  ---------------------------------------------------------------------------

           1       2       3       4       5       6       7       8       9      10      11      12      13      14      15
          16      17      18      19      20      21      22      23      24      25      26      27
 ...........................................................................................................................
   1   290.33  290.28  290.17  290.02  289.82  289.58  289.32  289.04  288.78  288.60  288.47  288.38  288.32  288.28  288.25
       288.19  288.10  287.97  287.80  287.56  287.30  287.04  286.79  286.55  286.33  286.15  286.02
   2   290.31  290.26  290.15  289.99  289.78  289.54  289.27  288.98  288.72  288.53  288.40  288.31  288.25  288.21  288.18
       288.12  288.03  287.91  287.74  287.50  287.24  286.99  286.75  286.52  286.31  286.12  286.00
   3   290.27  290.21  290.10  289.93  289.71  289.45  289.17  288.86  288.59  288.39  288.26  288.17  288.11  288.07  288.04
       287.98  287.89  287.77  287.60  287.38  287.14  286.91  286.68  286.46  286.26  286.08  285.96
   4   290.21  290.15  290.03  289.84  289.61  289.33  289.01  288.68  288.39  288.18  288.05  287.95  287.89  287.86  287.82
       287.76  287.68  287.56  287.40  287.20  286.99  286.78  286.58  286.38  286.19  286.02  285.91
   5   290.14  290.07  289.94  289.73  289.47  289.16  288.81  288.43  288.11  287.89  287.75  287.65  287.59  287.55  287.51
       287.46  287.37  287.27  287.13  286.96  286.78  286.61  286.44  286.27  286.10  285.95  285.84
   6   290.07  289.99  289.84  289.61  289.32  288.96  288.55  288.12  287.75  287.50  287.34  287.24  287.18  287.14  287.10
       287.05  286.97  286.88  286.76  286.64  286.53  286.42  286.29  286.15  286.01  285.87  285.77
   7   289.99  289.91  289.74  289.49  289.15  288.74  288.26  287.74  287.29  286.99  286.81  286.70  286.63  286.60  286.56
       286.51  286.44  286.37  286.30  286.26  286.24  286.20  286.13  286.03  285.91  285.79  285.70
   8   289.93  289.83  289.65  289.37  289.00  288.53  287.96  287.32  286.74  286.36  286.13  286.00  285.93  285.89  285.86
       285.81  285.76  285.73  285.75  285.84  285.93  285.98  285.97  285.92  285.82  285.72  285.64
   9   289.88  289.79  289.59  289.29  288.89  288.36  287.72  286.95  286.20  285.70  285.40  285.24  285.16  285.12  285.09
       285.05  285.03  285.07  285.22  285.47  285.69  285.82  285.86  285.84  285.77  285.68  285.60
  10   289.86  289.76  289.56  289.25  288.83  288.28  287.59  286.74  285.86  285.24  284.86  284.65  284.56  284.52  284.49
       284.46  284.49  284.61  284.88  285.25  285.56  285.74  285.81  285.80  285.74  285.65  285.58
  11   289.85  289.75  289.55  289.24  288.81  288.24  287.53  286.63  285.69  284.98  284.53  284.29  284.18  284.14  284.11
       284.10  284.16  284.35  284.70  285.15  285.50  285.70  285.78  285.78  285.73  285.64  285.57
  12   289.85  289.75  289.54  289.23  288.80  288.23  287.50  286.59  285.61  284.86  284.38  284.11  283.99  283.94  283.92
       283.92  284.01  284.24  284.63  285.11  285.48  285.68  285.77  285.78  285.72  285.64  285.57
  13   289.85  289.75  289.54  289.23  288.79  288.22  287.49  286.58  285.59  284.83  284.33  284.05  283.92  283.88  283.85
       283.86  283.96  284.20  284.60  285.09  285.47  285.68  285.77  285.77  285.72  285.64  285.57
  14   289.85  289.75  289.54  289.23  288.79  288.22  287.49  286.57  285.59  284.82  284.32  284.04  283.91  283.86  283.84
       283.85  283.95  284.20  284.60  285.09  285.47  285.68  285.77  285.77  285.72  285.64  285.57
  15   289.85  289.75  289.54  289.23  288.79  288.22  287.49  286.58  285.59  284.83  284.33  284.05  283.92  283.88  283.85
       283.86  283.96  284.20  284.60  285.09  285.47  285.68  285.77  285.77  285.72  285.64  285.57
  16   289.85  289.75  289.54  289.23  288.80  288.23  287.50  286.59  285.61  284.86  284.38  284.11  283.99  283.94  283.92
       283.92  284.01  284.24  284.63  285.11  285.48  285.68  285.77  285.78  285.72  285.64  285.57
  17   289.85  289.75  289.55  289.24  288.81  288.24  287.53  286.63  285.69  284.98  284.53  284.29  284.18  284.14  284.11
       284.10  284.16  284.35  284.70  285.15  285.50  285.70  285.78  285.78  285.73  285.64  285.57
  18   289.86  289.76  289.56  289.25  288.83  288.28  287.59  286.74  285.86  285.24  284.86  284.65  284.56  284.52  284.49
       284.46  284.49  284.61  284.88  285.25  285.56  285.74  285.81  285.80  285.74  285.65  285.58
  19   289.88  289.79  289.59  289.29  288.89  288.36  287.72  286.95  286.20  285.70  285.40  285.24  285.16  285.12  285.09
       285.05  285.03  285.07  285.22  285.47  285.69  285.82  285.86  285.84  285.77  285.68  285.60
  20   289.93  289.83  289.65  289.37  289.00  288.53  287.96  287.32  286.74  286.36  286.13  286.00  285.93  285.89  285.86
       285.81  285.76  285.73  285.75  285.84  285.93  285.98  285.97  285.92  285.82  285.72  285.64
  21   289.99  289.91  289.74  289.49  289.15  288.74  288.26  287.74  287.29  286.99  286.81  286.70  286.63  286.60  286.56
       286.51  286.44  286.37  286.30  286.26  286.24  286.20  286.13  286.03  285.91  285.79  285.70
  22   290.07  289.99  289.84  289.61  289.32  288.96  288.55  288.12  287.75  287.50  287.34  287.24  287.18  287.14  287.10
       287.05  286.97  286.88  286.76  286.64  286.53  286.42  286.29  286.15  286.01  285.87  285.77
  23   290.14  290.07  289.94  289.73  289.47  289.16  288.81  288.43  288.11  287.89  287.75  287.65  287.59  287.55  287.51
       287.46  287.37  287.27  287.13  286.96  286.78  286.61  286.44  286.27  286.10  285.95  285.84
  24   290.21  290.15  290.03  289.84  289.61  289.33  289.01  288.68  288.39  288.18  288.05  287.95  287.89  287.86  287.82
       287.76  287.68  287.56  287.40  287.20  286.99  286.78  286.58  286.38  286.19  286.02  285.91
  25   290.27  290.21  290.10  289.93  289.71  289.45  289.17  288.86  288.59  288.39  288.26  288.17  288.11  288.07  288.04
       287.98  287.89  287.77  287.60  287.38  287.14  286.91  286.68  286.46  286.26  286.08  285.96
  26   290.31  290.26  290.15  289.99  289.78  289.54  289.27  288.98  288.72  288.53  288.40  288.31  288.25  288.21  288.18
       288.12  288.03  287.91  287.74  287.50  287.24  286.99  286.75  286.52  286.31  286.12  286.00
  27   290.34  290.28  290.17  290.02  289.82  289.58  289.32  289.04  288.78  288.60  288.47  288.38  288.32  288.28  288.25
       288.19  288.10  287.97  287.80  287.56  287.30  287.04  286.79  286.55  286.33  286.15  286.02
1
              HEAD IN LAYER   3 AT END OF TIME STEP   8 IN STRESS PERIOD    2
  ---------------------------------------------------------------------------

           1       2       3       4       5       6       7       8       9      10      11      12      13      14      15
          16      17      18      19      20      21      22      23      24      25      26      27
 ...........................................................................................................................
   1   290.16  290.11  290.00  289.85  289.65  289.42  289.16  288.88  288.63  288.45  288.33  288.24  288.18  288.15  288.11
       288.05  287.97  287.85  287.68  287.45  287.21  286.97  286.75  286.54  286.36  286.22  286.14
   2   290.14  290.08  289.98  289.82  289.61  289.38  289.11  288.82  288.57  288.38  288.26  288.17  288.11  288.08  288.04
       287.99  287.90  287.78  287.62  287.40  287.16  286.93  286.71  286.51  286.34  286.20  286.12
   3   290.10  290.04  289.92  289.76  289.54  289.29  289.01  288.70  288.44  288.25  288.12  288.03  287.97  287.94  287.90
       287.85  287.76  287.65  287.49  287.28  287.05  286.84  286.64  286.45  286.29  286.16  286.08
   4   290.04  289.98  289.85  289.67  289.44  289.16  288.85  288.52  288.24  288.04  287.91  287.81  287.76  287.72  287.69
       287.63  287.55  287.44  287.29  287.10  286.90  286.72  286.54  286.37  286.22  286.10  286.02
   5   289.97  289.90  289.76  289.56  289.30  288.99  288.65  288.28  287.96  287.74  287.60  287.51  287.45  287.41  287.38
       287.33  287.25  287.14  287.01  286.85  286.70  286.55  286.41  286.27  286.13  286.02  285.96
   6   289.89  289.82  289.67  289.44  289.15  288.80  288.39  287.96  287.59  287.35  287.19  287.09  287.03  287.00  286.96
       286.91  286.84  286.75  286.64  286.54  286.44  286.35  286.25  286.15  286.04  285.94  285.88
   7   289.82  289.73  289.57  289.32  288.99  288.58  288.10  287.58  287.12  286.83  286.65  286.54  286.47  286.44  286.40
       286.35  286.29  286.23  286.17  286.16  286.15  286.14  286.09  286.02  285.94  285.86  285.81
   8   289.75  289.66  289.48  289.20  288.83  288.36  287.79  287.14  286.54  286.14  285.91  285.77  285.70  285.66  285.63
       285.59  285.55  285.54  285.59  285.72  285.84  285.92  285.94  285.91  285.85  285.79  285.75
   9   289.71  289.61  289.42  289.12  288.72  288.20  287.55  286.75  285.94  285.35  284.99  284.80  284.71  284.67  284.64
       284.61  284.63  284.75  284.99  285.32  285.59  285.76  285.83  285.83  285.80  285.75  285.71
  10   289.69  289.59  289.39  289.09  288.66  288.11  287.41  286.51  285.51  284.69  284.13  283.83  283.70  283.65  283.63
       283.64  283.77  284.08  284.56  285.08  285.46  285.67  285.77  285.79  285.77  285.72  285.69
  11   289.68  289.58  289.38  289.07  288.64  288.07  287.34  286.39  285.27  284.25  283.47  283.00  282.80  282.75  282.73
       282.81  283.12  283.65  284.32  284.96  285.39  285.63  285.75  285.78  285.76  285.71  285.68
  12   289.68  289.58  289.37  289.06  288.63  288.06  287.32  286.34  285.16  284.03  283.08  282.41  282.10  282.02  282.03
       282.22  282.72  283.42  284.21  284.91  285.37  285.62  285.74  285.77  285.75  285.71  285.68
  13   289.67  289.57  289.37  289.06  288.63  288.05  287.31  286.32  285.13  283.96  282.94  282.16  281.74  281.62  281.67
       281.97  282.59  283.35  284.17  284.90  285.36  285.61  285.73  285.77  285.75  285.71  285.67
  14   289.67  289.57  289.37  289.06  288.63  288.05  287.31  286.32  285.12  283.95  282.92  282.11  281.65  281.48  281.58
       281.93  282.56  283.34  284.17  284.89  285.36  285.61  285.73  285.77  285.75  285.71  285.67
  15   289.67  289.57  289.37  289.06  288.63  288.05  287.31  286.32  285.13  283.96  282.94  282.16  281.74  281.62  281.67
       281.97  282.59  283.35  284.17  284.90  285.36  285.61  285.73  285.77  285.75  285.71  285.67
  16   289.68  289.58  289.37  289.06  288.63  288.06  287.32  286.34  285.16  284.03  283.08  282.41  282.10  282.02  282.03
       282.22  282.72  283.42  284.21  284.91  285.37  285.62  285.74  285.77  285.75  285.71  285.68
  17   289.68  289.58  289.38  289.07  288.64  288.07  287.34  286.39  285.27  284.25  283.47  283.00  282.80  282.75  282.73
       282.81  283.12  283.65  284.32  284.96  285.39  285.63  285.75  285.78  285.76  285.71  285.68
  18   289.69  289.59  289.39  289.09  288.66  288.11  287.41  286.51  285.51  284.69  284.13  283.83  283.70  283.65  283.63
       283.64  283.77  284.08  284.56  285.08  285.46  285.67  285.77  285.79  285.77  285.72  285.69
  19   289.71  289.61  289.42  289.12  288.72  288.20  287.55  286.75  285.94  285.35  284.99  284.80  284.71  284.67  284.64
       284.61  284.63  284.75  284.99  285.32  285.59  285.76  285.83  285.83  285.80  285.75  285.71
  20   289.75  289.66  289.48  289.20  288.83  288.36  287.79  287.14  286.54  286.14  285.91  285.77  285.70  285.66  285.63
       285.59  285.55  285.54  285.59  285.72  285.84  285.92  285.94  285.91  285.85  285.79  285.75
  21   289.82  289.73  289.57  289.32  288.99  288.58  288.10  287.58  287.12  286.83  286.65  286.54  286.47  286.44  286.40
       286.35  286.29  286.23  286.17  286.16  286.15  286.14  286.09  286.02  285.94  285.86  285.81
  22   289.89  289.82  289.67  289.44  289.15  288.80  288.39  287.96  287.59  287.35  287.19  287.09  287.03  287.00  286.96
       286.91  286.84  286.75  286.64  286.54  286.44  286.35  286.25  286.15  286.04  285.94  285.88
  23   289.97  289.90  289.76  289.56  289.30  288.99  288.65  288.28  287.96  287.74  287.60  287.51  287.45  287.41  287.38
       287.33  287.25  287.14  287.01  286.85  286.70  286.55  286.41  286.27  286.13  286.02  285.96
  24   290.04  289.98  289.85  289.67  289.44  289.16  288.85  288.52  288.24  288.04  287.91  287.81  287.76  287.72  287.69
       287.63  287.55  287.44  287.29  287.10  286.90  286.72  286.54  286.37  286.22  286.10  286.02
  25   290.10  290.04  289.92  289.76  289.54  289.29  289.01  288.70  288.44  288.25  288.12  288.03  287.97  287.94  287.90
       287.85  287.76  287.65  287.49  287.28  287.05  286.84  286.64  286.45  286.29  286.16  286.08
  26   290.14  290.08  289.98  289.82  289.61  289.38  289.11  288.82  288.57  288.38  288.26  288.17  288.11  288.08  288.04
       287.99  287.90  287.78  287.62  287.40  287.16  286.93  286.71  286.51  286.34  286.20  286.12
  27   290.16  290.11  290.00  289.85  289.65  289.42  289.16  288.88  288.63  288.45  288.33  288.24  288.18  288.15  288.11
       288.05  287.97  287.85  287.68  287.45  287.21  286.97  286.75  286.54  286.36  286.22  286.14
1
              HEAD IN LAYER   4 AT END OF TIME STEP   8 IN STRESS PERIOD    2
  ---------------------------------------------------------------------------

           1       2       3       4       5       6       7       8       9      10      11      12      13      14      15
          16      17      18      19      20      21      22      23      24      25      26      27
 ...........................................................................................................................
   1   290.04  289.99  289.89  289.73  289.54  289.31  289.05  288.78  288.53  288.35  288.23  288.14  288.09  288.05  288.02
       287.97  287.88  287.77  287.60  287.39  287.15  286.93  286.73  286.54  286.38  286.27  286.20
   2   290.02  289.97  289.86  289.70  289.50  289.27  289.00  288.72  288.47  288.29  288.16  288.08  288.02  287.99  287.95
       287.90  287.81  287.70  287.54  287.33  287.10  286.89  286.69  286.51  286.36  286.24  286.18
   3   289.98  289.92  289.81  289.64  289.43  289.18  288.90  288.60  288.34  288.15  288.03  287.94  287.88  287.85  287.81
       287.76  287.68  287.56  287.41  287.21  287.00  286.80  286.62  286.45  286.31  286.20  286.14
   4   289.92  289.86  289.74  289.56  289.33  289.05  288.74  288.42  288.14  287.94  287.81  287.72  287.66  287.63  287.60
       287.54  287.46  287.35  287.21  287.03  286.84  286.67  286.51  286.37  286.24  286.14  286.08
   5   289.85  289.79  289.65  289.45  289.19  288.89  288.54  288.17  287.86  287.65  287.51  287.41  287.36  287.32  287.29
       287.23  287.16  287.06  286.93  286.78  286.64  286.51  286.38  286.26  286.15  286.07  286.02
   6   289.78  289.70  289.55  289.33  289.04  288.69  288.29  287.86  287.49  287.24  287.09  286.99  286.93  286.90  286.86
       286.81  286.74  286.66  286.56  286.47  286.39  286.31  286.23  286.14  286.06  285.99  285.94
   7   289.70  289.62  289.45  289.21  288.88  288.47  287.99  287.47  287.00  286.70  286.52  286.41  286.34  286.31  286.27
       286.23  286.17  286.11  286.08  286.08  286.09  286.09  286.07  286.02  285.96  285.91  285.87
   8   289.64  289.55  289.37  289.09  288.72  288.25  287.68  287.01  286.38  285.95  285.69  285.55  285.47  285.44  285.41
       285.37  285.34  285.36  285.45  285.62  285.78  285.87  285.91  285.91  285.87  285.84  285.81
   9   289.59  289.50  289.31  289.01  288.61  288.08  287.42  286.58  285.68  284.97  284.50  284.25  284.15  284.10  284.08
       284.07  284.15  284.38  284.75  285.19  285.52  285.71  285.80  285.83  285.82  285.79  285.77
  10   289.57  289.48  289.28  288.97  288.55  288.00  287.27  286.31  285.12  283.97  283.02  282.43  282.19  282.13  282.12
       282.25  282.67  283.38  284.20  284.92  285.37  285.62  285.74  285.79  285.79  285.77  285.75
  11   289.56  289.46  289.26  288.95  288.53  287.95  287.20  286.16  284.77  283.14  281.40  279.90  279.19  279.04  279.12
       279.72  281.05  282.55  283.85  284.77  285.30  285.58  285.72  285.77  285.77  285.76  285.74
  12   289.56  289.46  289.26  288.95  288.52  287.94  287.17  286.10  284.61  282.62  279.99  276.71  274.28  273.58  274.21
       276.53  279.64  282.04  283.68  284.71  285.27  285.56  285.71  285.76  285.77  285.75  285.74
  13   289.56  289.46  289.26  288.95  288.51  287.93  287.16  286.09  284.55  282.44  279.33  274.33  268.01  263.73  267.94
       274.15  278.98  281.85  283.63  284.69  285.26  285.56  285.71  285.76  285.77  285.75  285.73
  14   289.56  289.46  289.26  288.95  288.51  287.93  287.16  286.08  284.54  282.41  279.21  273.67  263.77  244.03  263.70
       273.49  278.86  281.82  283.62  284.69  285.26  285.56  285.71  285.76  285.77  285.75  285.73
  15   289.56  289.46  289.26  288.95  288.51  287.93  287.16  286.09  284.55  282.44  279.33  274.33  268.01  263.73  267.94
       274.15  278.98  281.85  283.63  284.69  285.26  285.56  285.71  285.76  285.77  285.75  285.73
  16   289.56  289.46  289.26  288.95  288.52  287.94  287.17  286.10  284.61  282.62  279.99  276.71  274.28  273.58  274.21
       276.53  279.64  282.04  283.68  284.71  285.27  285.56  285.71  285.76  285.77  285.75  285.74
  17   289.56  289.46  289.26  288.95  288.53  287.95  287.20  286.16  284.77  283.14  281.40  279.90  279.19  279.04  279.12
       279.72  281.05  282.55  283.85  284.77  285.30  285.58  285.72  285.77  285.77  285.76  285.74
  18   289.57  289.48  289.28  288.97  288.55  288.00  287.27  286.31  285.12  283.97  283.02  282.43  282.19  282.13  282.12
       282.25  282.67  283.38  284.20  284.92  285.37  285.62  285.74  285.79  285.79  285.77  285.75
  19   289.59  289.50  289.31  289.01  288.61  288.08  287.42  286.58  285.68  284.97  284.50  284.25  284.15  284.10  284.08
       284.07  284.15  284.38  284.75  285.19  285.52  285.71  285.80  285.83  285.82  285.79  285.77
  20   289.64  289.55  289.37  289.09  288.72  288.25  287.68  287.01  286.38  285.95  285.69  285.55  285.47  285.44  285.41
       285.37  285.34  285.36  285.45  285.62  285.78  285.87  285.91  285.91  285.87  285.84  285.81
  21   289.70  289.62  289.45  289.21  288.88  288.47  287.99  287.47  287.00  286.70  286.52  286.41  286.34  286.31  286.27
       286.23  286.17  286.11  286.08  286.08  286.09  286.09  286.07  286.02  285.96  285.91  285.87
  22   289.78  289.70  289.55  289.33  289.04  288.69  288.29  287.86  287.49  287.24  287.09  286.99  286.93  286.90  286.86
       286.81  286.74  286.66  286.56  286.47  286.39  286.31  286.23  286.14  286.06  285.99  285.94
  23   289.85  289.79  289.65  289.45  289.19  288.89  288.54  288.17  287.86  287.65  287.51  287.41  287.36  287.32  287.29
       287.23  287.16  287.06  286.93  286.78  286.64  286.51  286.38  286.26  286.15  286.07  286.02
  24   289.92  289.86  289.74  289.56  289.33  289.05  288.74  288.42  288.14  287.94  287.81  287.72  287.66  287.63  287.60
       287.54  287.46  287.35  287.21  287.03  286.84  286.67  286.51  286.37  286.24  286.14  286.08
  25   289.98  289.92  289.81  289.64  289.43  289.18  288.90  288.60  288.34  288.15  288.03  287.94  287.88  287.85  287.81
       287.76  287.68  287.56  287.41  287.21  287.00  286.80  286.62  286.45  286.31  286.20  286.14
  26   290.02  289.97  289.86  289.70  289.50  289.27  289.00  288.72  288.47  288.29  288.16  288.08  288.02  287.99  287.95
       287.90  287.81  287.70  287.54  287.33  287.10  286.89  286.69  286.51  286.36  286.24  286.18
  27   290.04  289.99  289.89  289.73  289.54  289.31  289.05  288.78  288.53  288.35  288.23  288.14  288.09  288.05  288.02
       287.97  287.88  287.77  287.60  287.39  287.15  286.93  286.73  286.54  286.38  286.27  286.20
1
              HEAD IN LAYER   5 AT END OF TIME STEP   8 IN STRESS PERIOD    2
  ---------------------------------------------------------------------------

           1       2       3       4       5       6       7       8       9      10      11      12      13      14      15
          16      17      18      19      20      21      22      23      24      25      26      27
 ...........................................................................................................................
   1   289.99  289.93  289.83  289.68  289.48  289.25  289.00  288.73  288.48  288.31  288.18  288.10  288.04  288.01  287.98
       287.92  287.84  287.72  287.57  287.35  287.12  286.91  286.71  286.54  286.39  286.29  286.23
   2   289.96  289.91  289.80  289.65  289.45  289.21  288.95  288.67  288.42  288.24  288.12  288.03  287.98  287.94  287.91
       287.85  287.77  287.66  287.50  287.29  287.07  286.87  286.68  286.51  286.37  286.26  286.21
   3   289.92  289.87  289.75  289.59  289.38  289.12  288.85  288.55  288.29  288.10  287.98  287.89  287.84  287.80  287.77
       287.72  287.63  287.52  287.37  287.18  286.97  286.78  286.61  286.45  286.32  286.22  286.17
   4   289.87  289.80  289.68  289.50  289.27  289.00  288.69  288.37  288.09  287.89  287.76  287.67  287.62  287.58  287.55
       287.50  287.42  287.31  287.17  287.00  286.82  286.65  286.50  286.37  286.25  286.16  286.11
   5   289.80  289.73  289.59  289.39  289.14  288.83  288.49  288.12  287.81  287.60  287.46  287.36  287.31  287.27  287.24
       287.19  287.11  287.01  286.89  286.75  286.61  286.49  286.37  286.26  286.16  286.09  286.05
   6   289.72  289.64  289.50  289.27  288.98  288.63  288.23  287.80  287.43  287.19  287.04  286.94  286.88  286.85  286.81
       286.76  286.69  286.61  286.52  286.43  286.36  286.29  286.22  286.14  286.07  286.01  285.97
   7   289.65  289.56  289.40  289.15  288.82  288.41  287.93  287.41  286.94  286.64  286.46  286.35  286.28  286.25  286.22
       286.17  286.11  286.06  286.03  286.03  286.06  286.07  286.06  286.02  285.97  285.93  285.90
   8   289.58  289.49  289.31  289.03  288.66  288.19  287.61  286.94  286.31  285.88  285.63  285.49  285.42  285.38  285.35
       285.32  285.29  285.30  285.39  285.57  285.74  285.85  285.90  285.90  285.88  285.86  285.84
   9   289.54  289.44  289.25  288.95  288.55  288.02  287.35  286.51  285.62  284.96  284.56  284.35  284.25  284.21  284.19
       284.17  284.21  284.38  284.70  285.14  285.48  285.68  285.79  285.83  285.83  285.81  285.79
  10   289.52  289.42  289.22  288.92  288.49  287.93  287.20  286.24  285.11  284.16  283.52  283.18  283.04  282.99  282.97
       283.00  283.18  283.58  284.20  284.87  285.33  285.59  285.73  285.79  285.80  285.79  285.77
  11   289.51  289.41  289.21  288.90  288.47  287.89  287.13  286.10  284.82  283.64  282.74  282.20  281.98  281.92  281.91
       282.02  282.39  283.06  283.91  284.73  285.26  285.55  285.71  285.77  285.78  285.78  285.77
  12   289.50  289.40  289.20  288.89  288.46  287.88  287.10  286.04  284.70  283.37  282.28  281.52  281.19  281.11  281.12
       281.34  281.93  282.79  283.78  284.67  285.23  285.54  285.70  285.76  285.78  285.77  285.76
  13   289.50  289.40  289.20  288.89  288.45  287.87  287.10  286.03  284.66  283.29  282.12  281.24  280.79  280.67  280.73
       281.07  281.77  282.71  283.74  284.65  285.22  285.53  285.69  285.76  285.78  285.77  285.76
  14   289.50  289.40  289.20  288.89  288.45  287.87  287.09  286.02  284.65  283.28  282.09  281.19  280.70  280.52  280.63
       281.02  281.75  282.69  283.74  284.65  285.22  285.53  285.69  285.76  285.78  285.77  285.76
  15   289.50  289.40  289.20  288.89  288.45  287.87  287.10  286.03  284.66  283.29  282.12  281.24  280.79  280.67  280.73
       281.07  281.77  282.71  283.74  284.65  285.22  285.53  285.69  285.76  285.78  285.77  285.76
  16   289.50  289.40  289.20  288.89  288.46  287.88  287.10  286.04  284.70  283.37  282.28  281.52  281.19  281.11  281.12
       281.34  281.93  282.79  283.78  284.67  285.23  285.54  285.70  285.76  285.78  285.77  285.76
  17   289.51  289.41  289.21  288.90  288.47  287.89  287.13  286.10  284.82  283.64  282.74  282.20  281.98  281.92  281.91
       282.02  282.39  283.06  283.91  284.73  285.26  285.55  285.71  285.77  285.78  285.78  285.77
  18   289.52  289.42  289.22  288.92  288.49  287.93  287.20  286.24  285.11  284.16  283.52  283.18  283.04  282.99  282.97
       283.00  283.18  283.58  284.20  284.87  285.33  285.59  285.73  285.79  285.80  285.79  285.77
  19   289.54  289.44  289.25  288.95  288.55  288.02  287.35  286.51  285.62  284.96  284.56  284.35  284.25  284.21  284.19
       284.17  284.21  284.38  284.70  285.14  285.48  285.68  285.79  285.83  285.83  285.81  285.79
  20   289.58  289.49  289.31  289.03  288.66  288.19  287.61  286.94  286.31  285.88  285.63  285.49  285.42  285.38  285.35
       285.32  285.29  285.30  285.39  285.57  285.74  285.85  285.90  285.90  285.88  285.86  285.84
  21   289.65  289.56  289.40  289.15  288.82  288.41  287.93  287.41  286.94  286.64  286.46  286.35  286.28  286.25  286.22
       286.17  286.11  286.06  286.03  286.03  286.06  286.07  286.06  286.02  285.97  285.93  285.90
  22   289.72  289.64  289.50  289.27  288.98  288.63  288.23  287.80  287.43  287.19  287.04  286.94  286.88  286.85  286.81
       286.76  286.69  286.61  286.52  286.43  286.36  286.29  286.22  286.14  286.07  286.01  285.97
  23   289.80  289.73  289.59  289.39  289.14  288.83  288.49  288.12  287.81  287.60  287.46  287.36  287.31  287.27  287.24
       287.19  287.11  287.01  286.89  286.75  286.61  286.49  286.37  286.26  286.16  286.09  286.05
  24   289.87  289.80  289.68  289.50  289.27  289.00  288.69  288.37  288.09  287.89  287.76  287.67  287.62  287.58  287.55
       287.50  287.42  287.31  287.17  287.00  286.82  286.65  286.50  286.37  286.25  286.16  286.11
  25   289.92  289.87  289.75  289.59  289.38  289.12  288.85  288.55  288.29  288.10  287.98  287.89  287.84  287.80  287.77
       287.72  287.63  287.52  287.37  287.18  286.97  286.78  286.61  286.45  286.32  286.22  286.17
  26   289.96  289.91  289.80  289.65  289.45  289.21  288.95  288.67  288.42  288.24  288.12  288.03  287.98  287.94  287.91
       287.85  287.77  287.66  287.50  287.29  287.07  286.87  286.68  286.51  286.37  286.26  286.21
  27   289.99  289.93  289.83  289.68  289.48  289.25  289.00  288.73  288.48  288.31  288.18  288.10  288.04  288.01  287.98
       287.92  287.84  287.72  287.57  287.35  287.12  286.91  286.71  286.54  286.39  286.29  286.23

 HEAD WILL BE SAVED ON UNIT   32 AT END OF TIME STEP   8, STRESS PERIOD    2
1
  VOLUMETRIC BUDGET FOR ENTIRE MODEL AT END OF TIME STEP  8 IN STRESS PERIOD   2
  ------------------------------------------------------------------------------

     CUMULATIVE VOLUMES      L**3       RATES FOR THIS TIME STEP      L**3/T
     ------------------                 ------------------------

           IN:                                      IN:
           ---                                      ---
             STORAGE =    87718888.0000               STORAGE =         650.6307
       CONSTANT HEAD =           0.0000         CONSTANT HEAD =           0.0000
               WELLS =           0.0000                 WELLS =           0.0000
       RIVER LEAKAGE =           0.0000         RIVER LEAKAGE =           0.0000
            RECHARGE = 56552435712.0000              RECHARGE =      292336.1875

            TOTAL IN = 56640155648.0000              TOTAL IN =      292986.8125

          OUT:                                     OUT:
          ----                                     ----
             STORAGE =        1155.6028               STORAGE =           0.0000
       CONSTANT HEAD =           0.0000         CONSTANT HEAD =           0.0000
               WELLS = 16352000000.0000                 WELLS =      160000.0000
       RIVER LEAKAGE = 40288198656.0000         RIVER LEAKAGE =      132986.3594
            RECHARGE =           0.0000              RECHARGE =           0.0000

           TOTAL OUT = 56640200704.0000             TOTAL OUT =      292986.3750

            IN - OUT =      -45056.0000              IN - OUT =           0.4375

 PERCENT DISCREPANCY =           0.00     PERCENT DISCREPANCY =           0.00






          TIME SUMMARY AT END OF TIME STEP   8 IN STRESS PERIOD    2
                    SECONDS     MINUTES      HOURS       DAYS        YEARS
                    -----------------------------------------------------------
   TIME STEP LENGTH 4.74895E+08 7.91492E+06 1.31915E+05  5496.5      15.049    
 STRESS PERIOD TIME 9.46080E+08 1.57680E+07 2.62800E+05  10950.      29.979    
         TOTAL TIME 1.67141E+10 2.78568E+08 4.64280E+06 1.93450E+05  529.64    
1
1
                            STRESS PERIOD NO.    3, LENGTH =   456200.0    
                            -----------------------------------------------

                              NUMBER OF TIME STEPS =     1

                               MULTIPLIER FOR DELT =     1.000

                            INITIAL TIME STEP SIZE =   456200.0    

 REUSING NON-PARAMETER WELLS FROM LAST STRESS PERIOD

      2 WELLS

 REUSING NON-PARAMETER RIVER REACHES FROM LAST STRESS PERIOD

     27 RIVER REACHES

 REUSING RECH FROM LAST STRESS PERIOD
 
 SOLVING FOR HEAD 


     4 CALLS TO PCG ROUTINE FOR TIME STEP   1 IN STRESS PERIOD    3
    48 TOTAL ITERATIONS

 MAXIMUM HEAD CHANGE FOR EACH ITERATION (1 INDICATES THE FIRST INNER ITERATION):

    HEAD CHANGE    HEAD CHANGE    HEAD CHANGE    HEAD CHANGE    HEAD CHANGE 
   LAYER,ROW,COL  LAYER,ROW,COL  LAYER,ROW,COL  LAYER,ROW,COL  LAYER,ROW,COL
 ---------------------------------------------------------------------------
  1 -0.3510E-01  0 -0.1293E-01  0 -0.2940E-01  0 -0.1611E-01  0 -0.1429E-01
   (  1, 27,  2)  (  1, 27,  7)  (  5, 27,  1)  (  5, 10,  7)  (  1,  1,  9)
  0 -0.1184E-01  0 -0.6979E-02  0 -0.5744E-02  0 -0.3665E-02  0 -0.3109E-02
   (  1,  1, 11)  (  1,  1, 12)  (  1,  1, 22)  (  1,  1, 23)  (  1,  1, 24)
  0 -0.2771E-02  0 -0.2833E-02  0  0.1972E-02  0 -0.9391E-03  0 -0.6154E-03
   (  2,  1,  6)  (  5, 27,  1)  (  5, 27,  8)  (  1,  9, 11)  (  5, 27,  1)
  0 -0.3772E-03  0 -0.2525E-03  0  0.1846E-03  0 -0.1639E-03  0  0.1178E-03
   (  3,  4,  1)  (  1, 11,  9)  (  4, 25, 21)  (  5, 10,  7)  (  1, 27,  2)
  1  0.7467E-02  0 -0.3333E-02  0 -0.7827E-02  0 -0.2443E-02  0  0.2031E-02
   (  1, 27,  3)  (  5, 25,  1)  (  1, 14, 14)  (  5, 27,  1)  (  1, 10, 10)
  0  0.2265E-02  0  0.1801E-02  0 -0.8948E-03  0 -0.9696E-03  0 -0.3950E-03
   (  5,  7,  8)  (  5,  3, 23)  (  1, 11, 16)  (  5,  1, 25)  (  5, 10, 23)
  0  0.4074E-03  0  0.4987E-03  0 -0.4399E-03  0 -0.2323E-03  0  0.1606E-03
   (  2,  1,  7)  (  5, 27,  1)  (  5, 27, 19)  (  5,  1, 27)  (  1, 26,  1)
  0  0.1102E-03  0 -0.5916E-04  1 -0.2808E-02  0  0.8587E-03  0  0.9553E-03
   (  3,  4,  1)  (  1, 27,  3)  (  1, 14, 14)  (  5, 27,  1)  (  1, 27,  6)
  0  0.4384E-03  0  0.3489E-03  0 -0.3235E-03  0 -0.2085E-03  0 -0.1284E-03
   (  5, 10, 10)  (  1, 13, 13)  (  5, 27,  1)  (  5,  1, 23)  (  5,  1, 27)
  0  0.1601E-03  0  0.7626E-04  1 -0.8206E-04
   (  5,  1, 26)  (  5, 12, 24)  (  5,  9, 22)

 MAXIMUM RESIDUAL FOR EACH ITERATION (1 INDICATES THE FIRST INNER ITERATION):

    RESIDUAL       RESIDUAL       RESIDUAL       RESIDUAL       RESIDUAL    
   LAYER,ROW,COL  LAYER,ROW,COL  LAYER,ROW,COL  LAYER,ROW,COL  LAYER,ROW,COL
 ---------------------------------------------------------------------------
  1   10.49      0   15.16      0   20.92      0   22.58      0   20.26    
   (  1, 26, 27)  (  1, 26, 27)  (  1, 26, 27)  (  1, 26, 27)  (  1, 26, 27)
  0   18.10      0   17.13      0   15.28      0   14.40      0   12.59    
   (  1,  9, 27)  (  1,  9, 27)  (  1,  1, 25)  (  1,  2, 27)  (  1,  2, 27)
  0   10.82      0   8.994      0   7.943      0   5.190      0  -3.425    
   (  1,  1, 27)  (  1,  1, 27)  (  1,  1, 27)  (  1,  1, 27)  (  1,  2, 26)
  0   2.116      0   1.697      0   1.220      0   1.107      0  0.7602    
   (  1,  2, 24)  (  1,  2, 24)  (  1,  2, 24)  (  1,  2, 25)  (  1,  2, 25)
  1   90.32      0   84.13      0   61.58      0   51.04      0   33.49    
   (  1, 14, 14)  (  1, 14, 14)  (  1, 14, 14)  (  1, 14, 14)  (  1, 14, 14)
  0   22.35      0   14.38      0   10.48      0   9.815      0   8.605    
   (  1, 14, 14)  (  1, 14, 14)  (  1, 13, 15)  (  1, 13, 15)  (  1, 13, 15)
  0   7.240      0   6.527      0   4.843      0   3.105      0   1.511    
   (  1, 13, 15)  (  1, 13, 15)  (  1, 13, 15)  (  1, 13, 15)  (  1, 13, 15)
  0  0.7925      0  0.6182      1   15.71      0   13.01      0   8.021    
   (  1, 13, 15)  (  1, 12, 16)  (  1, 14, 14)  (  1, 14, 14)  (  1, 14, 14)
  0   6.100      0   3.513      0   3.555      0   3.434      0   2.858    
   (  1, 14, 14)  (  1, 15, 13)  (  1, 15, 13)  (  1, 15, 13)  (  1, 15, 13)
  0   2.172      0   1.732      1   4.074    
   (  1, 13, 15)  (  1, 13, 15)  (  1, 14, 14)



 OUTPUT CONTROL FOR STRESS PERIOD    3   TIME STEP   1
    PRINT BUDGET
    PRINT HEAD FOR ALL LAYERS
    SAVE HEAD FOR ALL LAYERS
    SAVE BUDGET
 UBDSV1 SAVING "         STORAGE" ON UNIT  34 AT TIME STEP  1, STRESS PERIOD   3
 UBDSV2 SAVING "   CONSTANT HEAD" ON UNIT  34 AT TIME STEP  1, STRESS PERIOD   3
 UBDSV1 SAVING "FLOW RIGHT FACE " ON UNIT  34 AT TIME STEP  1, STRESS PERIOD   3
 UBDSV1 SAVING "FLOW FRONT FACE " ON UNIT  34 AT TIME STEP  1, STRESS PERIOD   3
 UBDSV1 SAVING "FLOW LOWER FACE " ON UNIT  34 AT TIME STEP  1, STRESS PERIOD   3
 UBDSV4 SAVING "           WELLS" ON UNIT  34 AT TIME STEP  1, STRESS PERIOD   3
 UBDSV4 SAVING "   RIVER LEAKAGE" ON UNIT  34 AT TIME STEP  1, STRESS PERIOD   3
 UBDSV3 SAVING "        RECHARGE" ON UNIT  34 AT TIME STEP  1, STRESS PERIOD   3
1
              HEAD IN LAYER   1 AT END OF TIME STEP   1 IN STRESS PERIOD    3
  ---------------------------------------------------------------------------

           1       2       3       4       5       6       7       8       9      10      11      12      13      14      15
          16      17      18      19      20      21      22      23      24      25      26      27
 ...........................................................................................................................
   1   294.94  294.87  294.73  294.53  294.27  293.95  293.58  293.17  292.77  292.47  292.26  292.10  291.99  291.93  291.86
       291.75  291.58  291.33  290.96  290.40  289.69  288.87  287.93  286.83  285.54  283.99  282.14
   2   294.91  294.84  294.70  294.50  294.23  293.90  293.52  293.10  292.70  292.40  292.18  292.02  291.91  291.85  291.78
       291.67  291.50  291.25  290.88  290.33  289.63  288.82  287.89  286.80  285.51  283.98  282.13
   3   294.87  294.79  294.64  294.43  294.14  293.80  293.40  292.96  292.55  292.24  292.01  291.85  291.75  291.68  291.61
       291.51  291.34  291.09  290.73  290.19  289.51  288.72  287.81  286.74  285.47  283.95  282.12
   4   294.80  294.72  294.56  294.33  294.02  293.65  293.22  292.75  292.31  291.98  291.76  291.59  291.48  291.42  291.35
       291.24  291.08  290.84  290.49  289.97  289.32  288.58  287.70  286.65  285.41  283.91  282.10
   5   294.72  294.64  294.46  294.21  293.87  293.46  292.98  292.45  291.97  291.63  291.39  291.22  291.11  291.04  290.98
       290.87  290.70  290.48  290.15  289.67  289.08  288.38  287.55  286.54  285.33  283.86  282.07
   6   294.64  294.54  294.35  294.07  293.69  293.22  292.68  292.07  291.52  291.13  290.87  290.70  290.59  290.52  290.45
       290.35  290.19  289.98  289.69  289.28  288.77  288.14  287.37  286.41  285.24  283.80  282.04
   7   294.55  294.45  294.24  293.92  293.50  292.96  292.32  291.59  290.92  290.46  290.17  289.97  289.86  289.79  289.72
       289.62  289.48  289.30  289.08  288.79  288.40  287.88  287.18  286.28  285.15  283.74  282.01
   8   294.48  294.37  294.14  293.79  293.31  292.70  291.94  291.03  290.15  289.54  289.16  288.92  288.80  288.72  288.66
       288.57  288.46  288.36  288.29  288.21  288.00  287.60  286.99  286.15  285.06  283.69  281.99
   9   294.43  294.31  294.07  293.70  293.18  292.50  291.62  290.51  289.31  288.41  287.82  287.49  287.33  287.25  287.19
       287.12  287.11  287.21  287.44  287.67  287.67  287.40  286.86  286.06  285.00  283.65  281.97
  10   294.41  294.28  294.04  293.65  293.11  292.39  291.44  290.18  288.69  287.39  286.43  285.85  285.61  285.51  285.46
       285.48  285.70  286.17  286.80  287.33  287.49  287.29  286.79  286.02  284.97  283.63  281.96
  11   294.40  294.27  294.02  293.63  293.08  292.34  291.36  290.01  288.33  286.65  285.18  284.09  283.59  283.45  283.44
       283.71  284.44  285.43  286.43  287.16  287.40  287.24  286.76  286.00  284.96  283.63  281.96
  12   294.39  294.27  294.02  293.62  293.07  292.32  291.32  289.94  288.16  286.25  284.26  282.29  280.98  280.58  280.82
       281.89  283.51  285.01  286.25  287.09  287.36  287.22  286.75  285.99  284.96  283.62  281.96
  13   294.39  294.27  294.01  293.62  293.07  292.32  291.31  289.92  288.11  286.11  283.88  281.10  278.03  276.01  277.87
       280.70  283.13  284.88  286.20  287.07  287.35  287.21  286.74  285.99  284.95  283.62  281.96
  14   294.39  294.27  294.01  293.62  293.07  292.32  291.31  289.92  288.10  286.09  283.81  280.78  276.10  266.35  275.93
       280.38  283.06  284.85  286.19  287.06  287.35  287.21  286.74  285.99  284.95  283.62  281.96
  15   294.39  294.27  294.01  293.62  293.07  292.32  291.31  289.92  288.11  286.11  283.88  281.10  278.03  276.01  277.87
       280.70  283.13  284.88  286.20  287.07  287.35  287.21  286.74  285.99  284.95  283.62  281.96
  16   294.39  294.27  294.02  293.62  293.07  292.32  291.32  289.94  288.16  286.25  284.26  282.29  280.98  280.58  280.82
       281.89  283.51  285.01  286.25  287.09  287.36  287.22  286.75  285.99  284.96  283.62  281.96
  17   294.40  294.27  294.02  293.63  293.08  292.34  291.36  290.01  288.33  286.65  285.18  284.09  283.59  283.45  283.44
       283.71  284.44  285.43  286.43  287.16  287.40  287.24  286.76  286.00  284.96  283.63  281.96
  18   294.41  294.28  294.04  293.65  293.11  292.39  291.44  290.18  288.69  287.39  286.43  285.85  285.61  285.51  285.46
       285.48  285.70  286.17  286.80  287.33  287.49  287.29  286.79  286.02  284.97  283.63  281.96
  19   294.43  294.31  294.07  293.70  293.18  292.50  291.62  290.51  289.31  288.41  287.82  287.49  287.33  287.25  287.19
       287.12  287.11  287.21  287.44  287.67  287.67  287.40  286.86  286.06  285.00  283.65  281.97
  20   294.48  294.37  294.14  293.79  293.31  292.70  291.94  291.03  290.15  289.54  289.16  288.92  288.80  288.72  288.66
       288.57  288.46  288.36  288.29  288.21  288.00  287.60  286.99  286.15  285.06  283.69  281.99
  21   294.55  294.45  294.24  293.92  293.50  292.96  292.32  291.59  290.92  290.46  290.17  289.97  289.86  289.79  289.72
       289.62  289.48  289.30  289.08  288.79  288.40  287.88  287.18  286.28  285.15  283.74  282.01
  22   294.64  294.54  294.35  294.07  293.69  293.22  292.68  292.07  291.52  291.13  290.87  290.70  290.59  290.52  290.45
       290.35  290.19  289.98  289.69  289.28  288.77  288.14  287.37  286.41  285.24  283.80  282.04
  23   294.72  294.64  294.46  294.21  293.87  293.46  292.98  292.45  291.97  291.63  291.39  291.22  291.11  291.04  290.98
       290.87  290.70  290.48  290.15  289.67  289.08  288.38  287.55  286.54  285.33  283.86  282.07
  24   294.80  294.72  294.56  294.33  294.02  293.65  293.22  292.75  292.31  291.98  291.76  291.59  291.48  291.42  291.35
       291.24  291.08  290.84  290.49  289.97  289.32  288.58  287.70  286.65  285.41  283.91  282.10
  25   294.87  294.79  294.64  294.43  294.14  293.80  293.40  292.96  292.55  292.24  292.01  291.85  291.75  291.68  291.61
       291.51  291.34  291.09  290.73  290.19  289.51  288.72  287.81  286.74  285.47  283.95  282.12
  26   294.91  294.84  294.70  294.50  294.23  293.90  293.52  293.10  292.70  292.40  292.18  292.02  291.91  291.85  291.78
       291.67  291.50  291.25  290.88  290.33  289.63  288.82  287.89  286.80  285.51  283.98  282.13
  27   294.94  294.87  294.73  294.53  294.27  293.95  293.58  293.17  292.77  292.47  292.26  292.10  291.99  291.93  291.86
       291.75  291.58  291.33  290.96  290.40  289.69  288.87  287.93  286.83  285.54  283.99  282.14
1
              HEAD IN LAYER   2 AT END OF TIME STEP   1 IN STRESS PERIOD    3
  ---------------------------------------------------------------------------

           1       2       3       4       5       6       7       8       9      10      11      12      13      14      15
          16      17      18      19      20      21      22      23      24      25      26      27
 ...........................................................................................................................
   1   290.27  290.21  290.11  289.95  289.75  289.52  289.26  288.98  288.72  288.54  288.41  288.32  288.26  288.22  288.19
       288.13  288.04  287.92  287.74  287.51  287.24  286.99  286.74  286.50  286.29  286.10  285.98
   2   290.25  290.19  290.08  289.92  289.72  289.48  289.21  288.92  288.66  288.47  288.34  288.25  288.19  288.15  288.12
       288.06  287.97  287.85  287.68  287.45  287.19  286.94  286.70  286.47  286.26  286.08  285.96
   3   290.20  290.15  290.03  289.86  289.65  289.39  289.10  288.80  288.53  288.33  288.20  288.11  288.05  288.02  287.98
       287.92  287.83  287.71  287.55  287.33  287.09  286.86  286.63  286.41  286.21  286.04  285.92
   4   290.15  290.08  289.96  289.78  289.54  289.26  288.95  288.62  288.33  288.12  287.99  287.89  287.83  287.80  287.76
       287.71  287.62  287.50  287.35  287.15  286.93  286.73  286.53  286.33  286.14  285.98  285.87
   5   290.08  290.01  289.87  289.67  289.41  289.09  288.74  288.37  288.05  287.83  287.69  287.59  287.53  287.49  287.46
       287.40  287.32  287.21  287.07  286.90  286.73  286.56  286.40  286.22  286.06  285.91  285.80
   6   290.00  289.92  289.77  289.55  289.25  288.90  288.49  288.06  287.68  287.44  287.28  287.18  287.12  287.08  287.04
       286.99  286.91  286.82  286.71  286.59  286.48  286.37  286.24  286.11  285.96  285.83  285.73
   7   289.92  289.84  289.67  289.42  289.09  288.68  288.20  287.68  287.23  286.93  286.75  286.64  286.58  286.54  286.50
       286.45  286.38  286.31  286.25  286.21  286.19  286.15  286.08  285.98  285.87  285.75  285.66
   8   289.86  289.77  289.58  289.31  288.93  288.46  287.90  287.25  286.67  286.30  286.07  285.94  285.87  285.83  285.80
       285.75  285.70  285.68  285.69  285.78  285.88  285.93  285.92  285.87  285.78  285.68  285.60
   9   289.81  289.72  289.52  289.23  288.82  288.30  287.65  286.89  286.14  285.64  285.34  285.18  285.10  285.06  285.03
       284.99  284.97  285.02  285.16  285.41  285.64  285.77  285.81  285.79  285.72  285.63  285.56
  10   289.79  289.69  289.49  289.19  288.77  288.22  287.52  286.67  285.80  285.18  284.80  284.59  284.50  284.46  284.43
       284.41  284.43  284.55  284.82  285.20  285.51  285.69  285.76  285.75  285.69  285.61  285.54
  11   289.78  289.68  289.48  289.17  288.74  288.18  287.46  286.57  285.63  284.92  284.47  284.23  284.13  284.08  284.05
       284.04  284.10  284.29  284.64  285.10  285.45  285.65  285.73  285.73  285.68  285.60  285.53
  12   289.78  289.68  289.48  289.16  288.73  288.16  287.44  286.52  285.55  284.80  284.32  284.05  283.93  283.89  283.86
       283.86  283.95  284.18  284.57  285.05  285.42  285.63  285.72  285.73  285.67  285.60  285.53
  13   289.78  289.68  289.47  289.16  288.73  288.16  287.43  286.51  285.53  284.77  284.27  283.99  283.86  283.82  283.79
       283.80  283.90  284.14  284.55  285.04  285.42  285.63  285.72  285.73  285.67  285.59  285.52
  14   289.78  289.68  289.47  289.16  288.73  288.16  287.43  286.51  285.52  284.76  284.26  283.98  283.85  283.80  283.78
       283.79  283.89  284.14  284.54  285.04  285.41  285.63  285.72  285.73  285.67  285.59  285.52
  15   289.78  289.68  289.47  289.16  288.73  288.16  287.43  286.51  285.53  284.77  284.27  283.99  283.86  283.82  283.79
       283.80  283.90  284.14  284.55  285.04  285.42  285.63  285.72  285.73  285.67  285.59  285.52
  16   289.78  289.68  289.48  289.16  288.73  288.16  287.44  286.52  285.55  284.80  284.32  284.05  283.93  283.89  283.86
       283.86  283.95  284.18  284.57  285.05  285.42  285.63  285.72  285.73  285.67  285.60  285.53
  17   289.78  289.68  289.48  289.17  288.74  288.18  287.46  286.57  285.63  284.92  284.47  284.23  284.13  284.08  284.05
       284.04  284.10  284.29  284.64  285.10  285.45  285.65  285.73  285.73  285.68  285.60  285.53
  18   289.79  289.69  289.49  289.19  288.77  288.22  287.52  286.67  285.80  285.18  284.80  284.59  284.50  284.46  284.43
       284.41  284.43  284.55  284.82  285.20  285.51  285.69  285.76  285.75  285.69  285.61  285.54
  19   289.81  289.72  289.52  289.23  288.82  288.30  287.65  286.89  286.14  285.64  285.34  285.18  285.10  285.06  285.03
       284.99  284.97  285.02  285.16  285.41  285.64  285.77  285.81  285.79  285.72  285.63  285.56
  20   289.86  289.77  289.58  289.31  288.93  288.46  287.90  287.25  286.67  286.30  286.07  285.94  285.87  285.83  285.80
       285.75  285.70  285.68  285.69  285.78  285.88  285.93  285.92  285.87  285.78  285.68  285.60
  21   289.92  289.84  289.67  289.42  289.09  288.68  288.20  287.68  287.23  286.93  286.75  286.64  286.58  286.54  286.50
       286.45  286.38  286.31  286.25  286.21  286.19  286.15  286.08  285.98  285.87  285.75  285.66
  22   290.00  289.92  289.77  289.55  289.25  288.90  288.49  288.06  287.68  287.44  287.28  287.18  287.12  287.08  287.04
       286.99  286.91  286.82  286.71  286.59  286.48  286.37  286.24  286.11  285.96  285.83  285.73
  23   290.08  290.01  289.87  289.67  289.41  289.09  288.74  288.37  288.05  287.83  287.69  287.59  287.53  287.49  287.46
       287.40  287.32  287.21  287.07  286.90  286.73  286.56  286.40  286.22  286.06  285.91  285.80
  24   290.15  290.08  289.96  289.78  289.54  289.26  288.95  288.62  288.33  288.12  287.99  287.89  287.83  287.80  287.76
       287.71  287.62  287.50  287.35  287.15  286.93  286.73  286.53  286.33  286.14  285.98  285.87
  25   290.20  290.15  290.03  289.86  289.65  289.39  289.10  288.80  288.53  288.33  288.20  288.11  288.05  288.02  287.98
       287.92  287.83  287.71  287.55  287.33  287.09  286.86  286.63  286.41  286.21  286.04  285.92
  26   290.25  290.19  290.08  289.92  289.72  289.48  289.21  288.92  288.66  288.47  288.34  288.25  288.19  288.15  288.12
       288.06  287.97  287.85  287.68  287.45  287.19  286.94  286.70  286.47  286.26  286.08  285.96
  27   290.27  290.21  290.11  289.95  289.75  289.52  289.26  288.98  288.72  288.54  288.41  288.32  288.26  288.22  288.19
       288.13  288.04  287.92  287.74  287.51  287.24  286.99  286.74  286.50  286.29  286.10  285.98
1
              HEAD IN LAYER   3 AT END OF TIME STEP   1 IN STRESS PERIOD    3
  ---------------------------------------------------------------------------

           1       2       3       4       5       6       7       8       9      10      11      12      13      14      15
          16      17      18      19      20      21      22      23      24      25      26      27
 ...........................................................................................................................
   1   290.09  290.04  289.93  289.78  289.59  289.35  289.10  288.82  288.57  288.39  288.27  288.18  288.12  288.09  288.05
       288.00  287.91  287.79  287.63  287.40  287.16  286.92  286.70  286.50  286.32  286.17  286.09
   2   290.07  290.02  289.91  289.75  289.55  289.31  289.04  288.76  288.51  288.32  288.20  288.11  288.05  288.02  287.98
       287.93  287.84  287.73  287.56  287.34  287.10  286.88  286.66  286.47  286.29  286.15  286.07
   3   290.03  289.97  289.86  289.69  289.48  289.22  288.94  288.64  288.38  288.19  288.06  287.97  287.91  287.88  287.84
       287.79  287.70  287.59  287.43  287.22  287.00  286.79  286.59  286.41  286.24  286.11  286.03
   4   289.97  289.91  289.79  289.61  289.37  289.10  288.79  288.46  288.18  287.98  287.85  287.75  287.70  287.66  287.63
       287.57  287.49  287.38  287.23  287.04  286.85  286.66  286.49  286.32  286.17  286.05  285.98
   5   289.90  289.83  289.70  289.50  289.24  288.93  288.58  288.22  287.90  287.68  287.54  287.45  287.39  287.36  287.32
       287.27  287.19  287.09  286.95  286.80  286.64  286.50  286.36  286.22  286.09  285.98  285.91
   6   289.83  289.75  289.60  289.38  289.09  288.73  288.33  287.90  287.53  287.29  287.13  287.03  286.97  286.94  286.90
       286.85  286.78  286.69  286.59  286.48  286.39  286.30  286.20  286.10  285.99  285.90  285.84
   7   289.75  289.67  289.50  289.25  288.92  288.51  288.04  287.52  287.06  286.77  286.59  286.48  286.41  286.38  286.34
       286.29  286.23  286.17  286.12  286.10  286.10  286.08  286.04  285.98  285.89  285.82  285.77
   8   289.68  289.59  289.41  289.14  288.77  288.30  287.73  287.08  286.48  286.08  285.85  285.71  285.64  285.60  285.57
       285.53  285.49  285.48  285.53  285.66  285.79  285.87  285.89  285.86  285.81  285.75  285.70
   9   289.64  289.55  289.35  289.06  288.66  288.13  287.48  286.69  285.88  285.29  284.93  284.74  284.65  284.61  284.58
       284.56  284.57  284.69  284.93  285.27  285.54  285.70  285.78  285.78  285.75  285.70  285.66
  10   289.62  289.52  289.32  289.02  288.60  288.05  287.34  286.45  285.45  284.63  284.07  283.77  283.64  283.60  283.57
       283.58  283.72  284.03  284.50  285.03  285.40  285.62  285.72  285.75  285.72  285.68  285.64
  11   289.61  289.51  289.31  289.00  288.57  288.01  287.28  286.33  285.20  284.19  283.41  282.94  282.74  282.69  282.67
       282.75  283.06  283.59  284.26  284.91  285.34  285.58  285.70  285.73  285.71  285.67  285.63
  12   289.61  289.51  289.31  288.99  288.56  287.99  287.25  286.28  285.10  283.97  283.02  282.35  282.04  281.96  281.97
       282.17  282.66  283.37  284.15  284.86  285.31  285.57  285.69  285.72  285.70  285.66  285.63
  13   289.61  289.51  289.30  288.99  288.56  287.99  287.25  286.26  285.06  283.90  282.88  282.10  281.68  281.56  281.61
       281.92  282.53  283.30  284.12  284.84  285.31  285.56  285.68  285.72  285.70  285.66  285.63
  14   289.61  289.51  289.30  288.99  288.56  287.99  287.24  286.26  285.06  283.89  282.86  282.05  281.59  281.42  281.52
       281.87  282.50  283.29  284.11  284.84  285.30  285.56  285.68  285.72  285.70  285.66  285.63
  15   289.61  289.51  289.30  288.99  288.56  287.99  287.25  286.26  285.06  283.90  282.88  282.10  281.68  281.56  281.61
       281.92  282.53  283.30  284.12  284.84  285.31  285.56  285.68  285.72  285.70  285.66  285.63
  16   289.61  289.51  289.31  288.99  288.56  287.99  287.25  286.28  285.10  283.97  283.02  282.35  282.04  281.96  281.97
       282.17  282.66  283.37  284.15  284.86  285.31  285.57  285.69  285.72  285.70  285.66  285.63
  17   289.61  289.51  289.31  289.00  288.57  288.01  287.28  286.33  285.20  284.19  283.41  282.94  282.74  282.69  282.67
       282.75  283.06  283.59  284.26  284.91  285.34  285.58  285.70  285.73  285.71  285.67  285.63
  18   289.62  289.52  289.32  289.02  288.60  288.05  287.34  286.45  285.45  284.63  284.07  283.77  283.64  283.60  283.57
       283.58  283.72  284.03  284.50  285.03  285.40  285.62  285.72  285.75  285.72  285.68  285.64
  19   289.64  289.55  289.35  289.06  288.66  288.13  287.48  286.69  285.88  285.29  284.93  284.74  284.65  284.61  284.58
       284.56  284.57  284.69  284.93  285.27  285.54  285.70  285.78  285.78  285.75  285.70  285.66
  20   289.68  289.59  289.41  289.14  288.77  288.30  287.73  287.08  286.48  286.08  285.85  285.71  285.64  285.60  285.57
       285.53  285.49  285.48  285.53  285.66  285.79  285.87  285.89  285.86  285.81  285.75  285.70
  21   289.75  289.67  289.50  289.25  288.92  288.51  288.04  287.52  287.06  286.77  286.59  286.48  286.41  286.38  286.34
       286.29  286.23  286.17  286.12  286.10  286.10  286.08  286.04  285.98  285.89  285.82  285.77
  22   289.83  289.75  289.60  289.38  289.09  288.73  288.33  287.90  287.53  287.29  287.13  287.03  286.97  286.94  286.90
       286.85  286.78  286.69  286.59  286.48  286.39  286.30  286.20  286.10  285.99  285.90  285.84
  23   289.90  289.83  289.70  289.50  289.24  288.93  288.58  288.22  287.90  287.68  287.54  287.45  287.39  287.36  287.32
       287.27  287.19  287.09  286.95  286.80  286.64  286.50  286.36  286.22  286.09  285.98  285.91
  24   289.97  289.91  289.79  289.61  289.37  289.10  288.79  288.46  288.18  287.98  287.85  287.75  287.70  287.66  287.63
       287.57  287.49  287.38  287.23  287.04  286.85  286.66  286.49  286.32  286.17  286.05  285.98
  25   290.03  289.97  289.86  289.69  289.48  289.22  288.94  288.64  288.38  288.19  288.06  287.97  287.91  287.88  287.84
       287.79  287.70  287.59  287.43  287.22  287.00  286.79  286.59  286.41  286.24  286.11  286.03
  26   290.07  290.02  289.91  289.75  289.55  289.31  289.04  288.76  288.51  288.32  288.20  288.11  288.05  288.02  287.98
       287.93  287.84  287.73  287.56  287.34  287.10  286.88  286.66  286.47  286.29  286.15  286.07
  27   290.09  290.04  289.93  289.78  289.59  289.35  289.10  288.82  288.57  288.39  288.27  288.18  288.12  288.09  288.05
       288.00  287.91  287.79  287.63  287.40  287.16  286.92  286.70  286.50  286.32  286.17  286.09
1
              HEAD IN LAYER   4 AT END OF TIME STEP   1 IN STRESS PERIOD    3
  ---------------------------------------------------------------------------

           1       2       3       4       5       6       7       8       9      10      11      12      13      14      15
          16      17      18      19      20      21      22      23      24      25      26      27
 ...........................................................................................................................
   1   289.98  289.92  289.82  289.67  289.47  289.25  288.99  288.72  288.47  288.29  288.17  288.09  288.03  288.00  287.96
       287.91  287.82  287.71  287.55  287.33  287.10  286.88  286.68  286.49  286.34  286.22  286.15
   2   289.96  289.90  289.79  289.64  289.44  289.20  288.94  288.66  288.41  288.23  288.10  288.02  287.96  287.93  287.89
       287.84  287.76  287.64  287.48  287.27  287.05  286.84  286.64  286.46  286.31  286.20  286.13
   3   289.91  289.86  289.74  289.58  289.37  289.12  288.84  288.54  288.28  288.09  287.97  287.88  287.82  287.79  287.76
       287.70  287.62  287.51  287.36  287.16  286.95  286.75  286.57  286.40  286.26  286.15  286.09
   4   289.86  289.79  289.67  289.49  289.26  288.99  288.68  288.36  288.08  287.88  287.75  287.66  287.61  287.57  287.54
       287.48  287.40  287.30  287.15  286.98  286.79  286.62  286.47  286.32  286.19  286.09  286.04
   5   289.79  289.72  289.58  289.39  289.13  288.82  288.48  288.11  287.80  287.59  287.45  287.35  287.30  287.26  287.23
       287.18  287.10  287.00  286.88  286.73  286.59  286.46  286.33  286.21  286.11  286.02  285.97
   6   289.71  289.64  289.49  289.26  288.97  288.62  288.22  287.79  287.43  287.18  287.03  286.93  286.87  286.84  286.80
       286.75  286.68  286.60  286.50  286.41  286.33  286.26  286.18  286.10  286.01  285.94  285.90
   7   289.64  289.55  289.39  289.14  288.81  288.40  287.93  287.40  286.94  286.64  286.46  286.35  286.28  286.25  286.22
       286.17  286.11  286.06  286.02  286.02  286.04  286.04  286.02  285.97  285.91  285.86  285.83
   8   289.57  289.48  289.30  289.02  288.65  288.18  287.61  286.95  286.31  285.89  285.63  285.49  285.42  285.38  285.35
       285.31  285.28  285.30  285.39  285.56  285.72  285.82  285.86  285.86  285.83  285.79  285.76
   9   289.53  289.43  289.24  288.95  288.54  288.02  287.35  286.52  285.62  284.91  284.44  284.19  284.09  284.04  284.02
       284.02  284.10  284.32  284.69  285.13  285.46  285.66  285.75  285.78  285.77  285.74  285.72
  10   289.51  289.41  289.21  288.91  288.49  287.93  287.21  286.25  285.06  283.91  282.97  282.37  282.13  282.07  282.06
       282.19  282.62  283.32  284.14  284.86  285.32  285.57  285.69  285.74  285.74  285.72  285.70
  11   289.50  289.40  289.20  288.89  288.46  287.89  287.14  286.10  284.71  283.08  281.34  279.84  279.13  278.98  279.06
       279.67  280.99  282.49  283.79  284.72  285.25  285.53  285.67  285.72  285.73  285.71  285.69
  12   289.49  289.39  289.19  288.88  288.45  287.87  287.11  286.04  284.54  282.56  279.93  276.65  274.22  273.52  274.15
       276.47  279.58  281.98  283.62  284.66  285.22  285.51  285.66  285.72  285.72  285.71  285.69
  13   289.49  289.39  289.19  288.88  288.45  287.87  287.10  286.02  284.49  282.38  279.27  274.27  267.95  263.67  267.88
       274.10  278.92  281.80  283.57  284.64  285.21  285.51  285.66  285.71  285.72  285.70  285.69
  14   289.49  289.39  289.19  288.88  288.45  287.87  287.10  286.02  284.48  282.35  279.15  273.61  263.71  243.97  263.64
       273.43  278.80  281.77  283.56  284.64  285.21  285.51  285.66  285.71  285.72  285.70  285.69
  15   289.49  289.39  289.19  288.88  288.45  287.87  287.10  286.02  284.49  282.38  279.27  274.27  267.95  263.67  267.88
       274.10  278.92  281.80  283.57  284.64  285.21  285.51  285.66  285.71  285.72  285.70  285.69
  16   289.49  289.39  289.19  288.88  288.45  287.87  287.11  286.04  284.54  282.56  279.93  276.65  274.22  273.52  274.15
       276.47  279.58  281.98  283.62  284.66  285.22  285.51  285.66  285.72  285.72  285.71  285.69
  17   289.50  289.40  289.20  288.89  288.46  287.89  287.14  286.10  284.71  283.08  281.34  279.84  279.13  278.98  279.06
       279.67  280.99  282.49  283.79  284.72  285.25  285.53  285.67  285.72  285.73  285.71  285.69
  18   289.51  289.41  289.21  288.91  288.49  287.93  287.21  286.25  285.06  283.91  282.97  282.37  282.13  282.07  282.06
       282.19  282.62  283.32  284.14  284.86  285.32  285.57  285.69  285.74  285.74  285.72  285.70
  19   289.53  289.43  289.24  288.95  288.54  288.02  287.35  286.52  285.62  284.91  284.44  284.19  284.09  284.04  284.02
       284.02  284.10  284.32  284.69  285.13  285.46  285.66  285.75  285.78  285.77  285.74  285.72
  20   289.57  289.48  289.30  289.02  288.65  288.18  287.61  286.95  286.31  285.89  285.63  285.49  285.42  285.38  285.35
       285.31  285.28  285.30  285.39  285.56  285.72  285.82  285.86  285.86  285.83  285.79  285.76
  21   289.64  289.55  289.39  289.14  288.81  288.40  287.93  287.40  286.94  286.64  286.46  286.35  286.28  286.25  286.22
       286.17  286.11  286.06  286.02  286.02  286.04  286.04  286.02  285.97  285.91  285.86  285.83
  22   289.71  289.64  289.49  289.26  288.97  288.62  288.22  287.79  287.43  287.18  287.03  286.93  286.87  286.84  286.80
       286.75  286.68  286.60  286.50  286.41  286.33  286.26  286.18  286.10  286.01  285.94  285.90
  23   289.79  289.72  289.58  289.39  289.13  288.82  288.48  288.11  287.80  287.59  287.45  287.35  287.30  287.26  287.23
       287.18  287.10  287.00  286.88  286.73  286.59  286.46  286.33  286.21  286.11  286.02  285.97
  24   289.86  289.79  289.67  289.49  289.26  288.99  288.68  288.36  288.08  287.88  287.75  287.66  287.61  287.57  287.54
       287.48  287.40  287.30  287.15  286.98  286.79  286.62  286.47  286.32  286.19  286.09  286.04
  25   289.91  289.86  289.74  289.58  289.37  289.12  288.84  288.54  288.28  288.09  287.97  287.88  287.82  287.79  287.76
       287.70  287.62  287.51  287.36  287.16  286.95  286.75  286.57  286.40  286.26  286.15  286.09
  26   289.96  289.90  289.79  289.64  289.44  289.20  288.94  288.66  288.41  288.23  288.10  288.02  287.96  287.93  287.89
       287.84  287.76  287.64  287.48  287.27  287.05  286.84  286.64  286.46  286.31  286.20  286.13
  27   289.98  289.92  289.82  289.67  289.47  289.25  288.99  288.72  288.47  288.29  288.17  288.09  288.03  288.00  287.96
       287.91  287.82  287.71  287.55  287.33  287.10  286.88  286.68  286.49  286.34  286.22  286.15
1
              HEAD IN LAYER   5 AT END OF TIME STEP   1 IN STRESS PERIOD    3
  ---------------------------------------------------------------------------

           1       2       3       4       5       6       7       8       9      10      11      12      13      14      15
          16      17      18      19      20      21      22      23      24      25      26      27
 ...........................................................................................................................
   1   289.92  289.87  289.76  289.61  289.42  289.19  288.94  288.66  288.42  288.25  288.13  288.04  287.99  287.95  287.92
       287.86  287.78  287.67  287.51  287.30  287.07  286.86  286.66  286.49  286.35  286.24  286.18
   2   289.90  289.84  289.74  289.58  289.38  289.15  288.88  288.61  288.36  288.18  288.06  287.97  287.92  287.88  287.85
       287.80  287.71  287.60  287.45  287.24  287.02  286.82  286.63  286.46  286.32  286.22  286.16
   3   289.86  289.80  289.69  289.52  289.31  289.06  288.78  288.49  288.23  288.04  287.92  287.83  287.78  287.74  287.71
       287.66  287.58  287.47  287.32  287.12  286.92  286.73  286.56  286.40  286.27  286.18  286.12
   4   289.80  289.74  289.61  289.44  289.21  288.93  288.63  288.31  288.03  287.83  287.70  287.62  287.56  287.53  287.49
       287.44  287.36  287.26  287.12  286.94  286.76  286.60  286.45  286.32  286.20  286.11  286.07
   5   289.73  289.66  289.53  289.33  289.07  288.77  288.42  288.06  287.75  287.54  287.40  287.31  287.25  287.22  287.18
       287.13  287.05  286.96  286.84  286.69  286.56  286.44  286.32  286.21  286.12  286.04  286.00
   6   289.65  289.58  289.43  289.21  288.92  288.57  288.17  287.74  287.37  287.13  286.98  286.88  286.82  286.79  286.75
       286.70  286.63  286.55  286.46  286.37  286.30  286.24  286.17  286.09  286.02  285.96  285.93
   7   289.58  289.50  289.33  289.08  288.75  288.35  287.87  287.35  286.88  286.58  286.40  286.29  286.22  286.19  286.16
       286.11  286.05  286.00  285.97  285.98  286.01  286.02  286.01  285.97  285.92  285.88  285.85
   8   289.51  289.42  289.24  288.97  288.60  288.13  287.55  286.88  286.25  285.82  285.57  285.43  285.36  285.33  285.30
       285.26  285.23  285.24  285.34  285.51  285.69  285.80  285.85  285.86  285.84  285.81  285.79
   9   289.47  289.37  289.18  288.89  288.49  287.96  287.29  286.45  285.56  284.90  284.50  284.29  284.19  284.16  284.13
       284.11  284.15  284.32  284.65  285.08  285.42  285.63  285.74  285.78  285.78  285.76  285.75
  10   289.45  289.35  289.15  288.85  288.43  287.87  287.14  286.18  285.05  284.10  283.47  283.12  282.98  282.94  282.91
       282.94  283.12  283.53  284.14  284.81  285.28  285.54  285.68  285.74  285.75  285.74  285.73
  11   289.44  289.34  289.14  288.83  288.40  287.83  287.07  286.04  284.76  283.58  282.68  282.14  281.92  281.86  281.86
       281.96  282.34  283.00  283.85  284.67  285.21  285.50  285.66  285.72  285.74  285.73  285.72
  12   289.44  289.34  289.14  288.82  288.39  287.81  287.04  285.98  284.63  283.31  282.22  281.46  281.13  281.05  281.06
       281.29  281.87  282.73  283.72  284.62  285.18  285.49  285.65  285.71  285.73  285.73  285.72
  13   289.43  289.34  289.13  288.82  288.39  287.81  287.03  285.96  284.60  283.23  282.06  281.18  280.74  280.61  280.67
       281.01  281.72  282.65  283.69  284.60  285.17  285.48  285.64  285.71  285.73  285.72  285.72
  14   289.43  289.34  289.13  288.82  288.39  287.81  287.03  285.96  284.59  283.22  282.03  281.13  280.64  280.46  280.58
       280.96  281.69  282.64  283.68  284.60  285.17  285.48  285.64  285.71  285.73  285.72  285.72
  15   289.43  289.34  289.13  288.82  288.39  287.81  287.03  285.96  284.60  283.23  282.06  281.18  280.74  280.61  280.67
       281.01  281.72  282.65  283.69  284.60  285.17  285.48  285.64  285.71  285.73  285.72  285.72
  16   289.44  289.34  289.14  288.82  288.39  287.81  287.04  285.98  284.63  283.31  282.22  281.46  281.13  281.05  281.06
       281.29  281.87  282.73  283.72  284.62  285.18  285.49  285.65  285.71  285.73  285.73  285.72
  17   289.44  289.34  289.14  288.83  288.40  287.83  287.07  286.04  284.76  283.58  282.68  282.14  281.92  281.86  281.86
       281.96  282.34  283.00  283.85  284.67  285.21  285.50  285.66  285.72  285.74  285.73  285.72
  18   289.45  289.35  289.15  288.85  288.43  287.87  287.14  286.18  285.05  284.10  283.47  283.12  282.98  282.94  282.91
       282.94  283.12  283.53  284.14  284.81  285.28  285.54  285.68  285.74  285.75  285.74  285.73
  19   289.47  289.37  289.18  288.89  288.49  287.96  287.29  286.45  285.56  284.90  284.50  284.29  284.19  284.16  284.13
       284.11  284.15  284.32  284.65  285.08  285.42  285.63  285.74  285.78  285.78  285.76  285.75
  20   289.51  289.42  289.24  288.97  288.60  288.13  287.55  286.88  286.25  285.82  285.57  285.43  285.36  285.33  285.30
       285.26  285.23  285.24  285.34  285.51  285.69  285.80  285.85  285.86  285.84  285.81  285.79
  21   289.58  289.50  289.33  289.08  288.75  288.35  287.87  287.35  286.88  286.58  286.40  286.29  286.22  286.19  286.16
       286.11  286.05  286.00  285.97  285.98  286.01  286.02  286.01  285.97  285.92  285.88  285.85
  22   289.65  289.58  289.43  289.21  288.92  288.57  288.17  287.74  287.37  287.13  286.98  286.88  286.82  286.79  286.75
       286.70  286.63  286.55  286.46  286.37  286.30  286.24  286.17  286.09  286.02  285.96  285.93
  23   289.73  289.66  289.53  289.33  289.07  288.77  288.42  288.06  287.75  287.54  287.40  287.31  287.25  287.22  287.18
       287.13  287.05  286.96  286.84  286.69  286.56  286.44  286.32  286.21  286.12  286.04  286.00
  24   289.80  289.74  289.61  289.44  289.21  288.93  288.63  288.31  288.03  287.83  287.70  287.62  287.56  287.53  287.49
       287.44  287.36  287.26  287.12  286.94  286.76  286.60  286.45  286.32  286.20  286.11  286.07
  25   289.86  289.80  289.69  289.52  289.31  289.06  288.78  288.49  288.23  288.04  287.92  287.83  287.78  287.74  287.71
       287.66  287.58  287.47  287.32  287.12  286.92  286.73  286.56  286.40  286.27  286.18  286.12
  26   289.90  289.84  289.74  289.58  289.38  289.15  288.88  288.61  288.36  288.18  288.06  287.97  287.92  287.88  287.85
       287.80  287.71  287.60  287.45  287.24  287.02  286.82  286.63  286.46  286.32  286.22  286.16
  27   289.92  289.87  289.76  289.61  289.42  289.19  288.94  288.66  288.42  288.25  288.13  288.04  287.99  287.95  287.92
       287.86  287.78  287.67  287.51  287.30  287.07  286.86  286.66  286.49  286.35  286.24  286.18

 HEAD WILL BE SAVED ON UNIT   32 AT END OF TIME STEP   1, STRESS PERIOD    3
1
  VOLUMETRIC BUDGET FOR ENTIRE MODEL AT END OF TIME STEP  1 IN STRESS PERIOD   3
  ------------------------------------------------------------------------------

     CUMULATIVE VOLUMES      L**3       RATES FOR THIS TIME STEP      L**3/T
     ------------------                 ------------------------

           IN:                                      IN:
           ---                                      ---
             STORAGE =    88466456.0000               STORAGE =           1.6387
       CONSTANT HEAD =           0.0000         CONSTANT HEAD =           0.0000
               WELLS =           0.0000                 WELLS =           0.0000
       RIVER LEAKAGE =           0.0000         RIVER LEAKAGE =           0.0000
            RECHARGE =189916200960.0000              RECHARGE =      292336.1875

            TOTAL IN =190004674560.0000              TOTAL IN =      292337.8125

          OUT:                                     OUT:
          ----                                     ----
             STORAGE =        1155.6028               STORAGE =           0.0000
       CONSTANT HEAD =           0.0000         CONSTANT HEAD =           0.0000
               WELLS = 89344000000.0000                 WELLS =      160000.0000
       RIVER LEAKAGE =100661010432.0000         RIVER LEAKAGE =      132338.4844
            RECHARGE =           0.0000              RECHARGE =           0.0000

           TOTAL OUT =190005018624.0000             TOTAL OUT =      292338.5000

            IN - OUT =     -344064.0000              IN - OUT =          -0.6875

 PERCENT DISCREPANCY =           0.00     PERCENT DISCREPANCY =           0.00






          TIME SUMMARY AT END OF TIME STEP   1 IN STRESS PERIOD    3
                    SECONDS     MINUTES      HOURS       DAYS        YEARS
                    -----------------------------------------------------------
   TIME STEP LENGTH 3.94157E+10 6.56928E+08 1.09488E+07 4.56200E+05  1249.0    
 STRESS PERIOD TIME 3.94157E+10 6.56928E+08 1.09488E+07 4.56200E+05  1249.0    
         TOTAL TIME 5.61298E+10 9.35496E+08 1.55916E+07 6.49650E+05  1778.6    
1

 Run end date and time (yyyy/mm/dd hh:mm:ss): 2008/10/29 14:19:44
 Elapsed run time:  0.516 Seconds

