                                  MODFLOW-2000
      U.S. GEOLOGICAL SURVEY MODULAR FINITE-DIFFERENCE GROUND-WATER FLOW MODEL
                             VERSION 1.1 01/17/2001


 This model run combines GLOBAL and LIST output into this single file.

 GLOBAL LISTING FILE: DEMO-T.LST
                         UNIT   1

 OPENING DEMO-T.DIS
 FILE TYPE:DIS   UNIT   9

 OPENING DEMO-T.BA6
 FILE TYPE:BAS6   UNIT   2

 OPENING DEMO-T.BC6
 FILE TYPE:BCF6   UNIT  11

 OPENING DEMO-T.OC
 FILE TYPE:OC   UNIT  12

 OPENING DEMO-T.RCH
 FILE TYPE:RCH   UNIT  13

 OPENING DEMO-T.WEL
 FILE TYPE:WEL   UNIT  14

 OPENING DEMO-T.SIP
 FILE TYPE:SIP   UNIT  15

 OPENING DEMO-T.RIV
 FILE TYPE:RIV   UNIT  16

 OPENING DEMO-T.HED
 FILE TYPE:DATA(BINARY)   UNIT  32

 OPENING DEMO-T.BUD
 FILE TYPE:DATA(BINARY)   UNIT  34

 OPENING DEMO-S.HED
 FILE TYPE:DATA(BINARY)   UNIT  65

 DISCRETIZATION INPUT DATA READ FROM UNIT  9
    5 LAYERS        27 ROWS        27 COLUMNS
   3 STRESS PERIOD(S) IN SIMULATION
 MODEL TIME UNIT IS DAYS
 MODEL LENGTH UNIT IS UNDEFINED
 THE GROUND-WATER TRANSPORT PROCESS IS INACTIVE

 THE OBSERVATION PROCESS IS INACTIVE
 THE SENSITIVITY PROCESS IS INACTIVE
 THE PARAMETER-ESTIMATION PROCESS IS INACTIVE

 MODE: FORWARD

  Confining bed flag for each layer:
   1   0   0   0   0

      33588  ELEMENTS OF GX ARRAY USED OUT OF      33588
       3645  ELEMENTS OF GZ ARRAY USED OUT OF       3645
       3645  ELEMENTS OF IG ARRAY USED OUT OF       3645



                               DELR
 READING ON UNIT   9 WITH FORMAT: (10F10.0)           
   400.00       400.00       400.00       400.00       400.00       400.00       400.00       400.00       300.00       200.00    
   150.00       100.00       60.000       40.000       60.000       100.00       150.00       200.00       300.00       400.00    
   400.00       400.00       400.00       400.00       400.00       400.00       400.00    



                               DELC
 READING ON UNIT   9 WITH FORMAT: (10F10.0)           
   400.00       400.00       400.00       400.00       400.00       400.00       400.00       400.00       300.00       200.00    
   150.00       100.00       60.000       40.000       60.000       100.00       150.00       200.00       300.00       400.00    
   400.00       400.00       400.00       400.00       400.00       400.00       400.00    

 TOP ELEVATION OF LAYER 1 =   400.000    

   MODEL LAYER BOTTOM EL. =   220.000     FOR LAYER   1

 BOT. EL. OF QUASI-3D BED =   200.000     FOR LAYER   1

   MODEL LAYER BOTTOM EL. =   150.000     FOR LAYER   2

   MODEL LAYER BOTTOM EL. =   100.000     FOR LAYER   3

   MODEL LAYER BOTTOM EL. =   50.0000     FOR LAYER   4

   MODEL LAYER BOTTOM EL. =   0.00000     FOR LAYER   5


 STRESS PERIOD     LENGTH       TIME STEPS     MULTIPLIER FOR DELT    SS FLAG
 ----------------------------------------------------------------------------
        1         182500.0          1                    1.000         TR
        2         10950.00          8                    2.000         TR
        3         456200.0          1                    1.000         TR

 TRANSIENT SIMULATION




 SIP5 -- STRONGLY IMPLICIT PROCEDURE SOLUTION PACKAGE
                    VERSION 5, 9/1/93 INPUT READ FROM UNIT 15
 MAXIMUM OF 400 ITERATIONS ALLOWED FOR CLOSURE
  5 ITERATION PARAMETERS
      14985 ELEMENTS IN X ARRAY ARE USED BY SIP
       1200 ELEMENTS IN IX ARRAY ARE USED BY SIP

      14985  ELEMENTS OF X ARRAY USED OUT OF      14985
          0  ELEMENTS OF Z ARRAY USED OUT OF          1
       1200  ELEMENTS OF IX ARRAY USED OUT OF       1200
          0  ELEMENTS OF XHS ARRAY USED OUT OF          1



          SOLUTION BY THE STRONGLY IMPLICIT PROCEDURE
          -------------------------------------------
 MAXIMUM ITERATIONS ALLOWED FOR CLOSURE =      400
                 ACCELERATION PARAMETER =     1.0000    
      HEAD CHANGE CRITERION FOR CLOSURE =    0.10000E-03
      SIP HEAD CHANGE PRINTOUT INTERVAL =        1

     5 ITERATION PARAMETERS CALCULATED FROM SPECIFIED WSEED = 0.00050000 :

  0.000000E+00 0.850465E+00 0.977639E+00 0.996656E+00 0.999500E+00
 
 #MODPATH SAMPLE PROBLEM:                                                        
 #   TRANSIENT FLOW EXAMPLE                                                      
    5 LAYERS        27 ROWS        27 COLUMNS
   3 STRESS PERIOD(S) IN SIMULATION

 BAS6 -- BASIC PACKAGE, VERSION 6, 1/11/2000 INPUT READ FROM UNIT  2
         25 ELEMENTS IN IR ARRAY ARE USED BY BAS

 BCF6 -- BLOCK-CENTERED FLOW PACKAGE, VERSION 6, 1/11/2000
         INPUT READ FROM UNIT 11
 TRANSIENT SIMULATION
 CELL-BY-CELL FLOWS WILL BE SAVED ON UNIT 34
 HEAD AT CELLS THAT CONVERT TO DRY=  0.10000E+31
 WETTING CAPABILITY IS NOT ACTIVE
      LAYER  LAYER-TYPE CODE     INTERBLOCK T
      --------------------------------------------
         1            1          0 -- HARMONIC    
         2            0          0 -- HARMONIC    
         3            0          0 -- HARMONIC    
         4            0          0 -- HARMONIC    
         5            0          0 -- HARMONIC    
       4379 ELEMENTS IN RX ARRAY ARE USED BY BCF

 WEL6 -- WELL PACKAGE, VERSION 6, 1/11/2000 INPUT READ FROM UNIT 14
 No named parameters
 MAXIMUM OF    2 ACTIVE WELLS AT ONE TIME
 CELL-BY-CELL FLOWS WILL BE SAVED ON UNIT 34
 AUXILIARY WELL VARIABLE: IFACE           
         10 ELEMENTS IN RX ARRAY ARE USED BY WEL

 RIV6 -- RIVER PACKAGE, VERSION 6, 1/11/2000 INPUT READ FROM UNIT 16
 No named parameters
 MAXIMUM OF   27 ACTIVE RIVER REACHES AT ONE TIME
 CELL-BY-CELL FLOWS WILL BE SAVED ON UNIT 34
 AUXILIARY RIVER VARIABLE: IFACE           
        189 ELEMENTS IN RX ARRAY ARE USED BY RIV

 RCH6 -- RECHARGE PACKAGE, VERSION 6, 1/11/2000 INPUT READ FROM UNIT 13
 No named parameters
 OPTION 1 -- RECHARGE TO TOP LAYER
 CELL-BY-CELL FLOWS WILL BE SAVED ON UNIT 34
        729 ELEMENTS IN RX ARRAY ARE USED BY RCH
        729 ELEMENTS IN IR ARRAY ARE USED BY RCH

       5307  ELEMENTS OF RX ARRAY USED OUT OF       5307
        754  ELEMENTS OF IR ARRAY USED OUT OF        754
1
 #MODPATH SAMPLE PROBLEM:                                                        
 #   TRANSIENT FLOW EXAMPLE                                                      

           BOUNDARY ARRAY =              1 FOR LAYER   1

           BOUNDARY ARRAY =              1 FOR LAYER   2

           BOUNDARY ARRAY =              1 FOR LAYER   3

           BOUNDARY ARRAY =              1 FOR LAYER   4

           BOUNDARY ARRAY =              1 FOR LAYER   5

 AQUIFER HEAD WILL BE SET TO  999.90     AT ALL NO-FLOW NODES (IBOUND=0).



                       INITIAL HEAD FOR LAYER   1
 READING BINARY ON UNIT  65

            1           2           3           4           5           6           7           8           9          10
           11          12          13          14          15          16          17          18          19          20
           21          22          23          24          25          26          27
 ........................................................................................................................
   1    302.7       302.7       302.5       302.3       302.0       301.6       301.2       300.7       300.1       299.7    
        299.4       299.1       299.0       298.9       298.8       298.6       298.4       298.0       297.4       296.5    
        295.3       293.9       292.4       290.6       288.6       286.2       283.3    
   2    302.7       302.7       302.5       302.3       302.0       301.6       301.2       300.6       300.1       299.7    
        299.4       299.1       299.0       298.9       298.8       298.6       298.4       298.0       297.4       296.5    
        295.3       293.9       292.4       290.6       288.6       286.2       283.3    
   3    302.7       302.6       302.5       302.3       302.0       301.6       301.2       300.6       300.1       299.7    
        299.4       299.1       299.0       298.9       298.8       298.6       298.3       297.9       297.3       296.4    
        295.3       293.9       292.4       290.6       288.6       286.2       283.3    
   4    302.7       302.6       302.5       302.3       302.0       301.6       301.1       300.6       300.1       299.6    
        299.3       299.1       298.9       298.8       298.7       298.6       298.3       297.9       297.3       296.4    
        295.2       293.9       292.4       290.6       288.6       286.2       283.3    
   5    302.7       302.6       302.5       302.2       301.9       301.6       301.1       300.6       300.0       299.6    
        299.3       299.0       298.9       298.8       298.7       298.5       298.3       297.9       297.3       296.4    
        295.2       293.9       292.3       290.6       288.5       286.1       283.3    
   6    302.7       302.6       302.4       302.2       301.9       301.5       301.1       300.5       300.0       299.5    
        299.2       299.0       298.8       298.7       298.6       298.5       298.2       297.8       297.2       296.3    
        295.2       293.8       292.3       290.6       288.5       286.1       283.3    
   7    302.7       302.6       302.4       302.2       301.9       301.5       301.0       300.5       299.9       299.5    
        299.2       298.9       298.8       298.7       298.6       298.4       298.1       297.8       297.2       296.3    
        295.1       293.8       292.3       290.5       288.5       286.1       283.3    
   8    302.6       302.6       302.4       302.2       301.9       301.5       301.0       300.4       299.9       299.4    
        299.1       298.9       298.7       298.6       298.5       298.4       298.1       297.7       297.1       296.2    
        295.1       293.8       292.3       290.5       288.5       286.1       283.3    
   9    302.6       302.6       302.4       302.2       301.8       301.4       301.0       300.4       299.8       299.4    
        299.1       298.8       298.7       298.6       298.5       298.3       298.1       297.7       297.1       296.2    
        295.1       293.8       292.2       290.5       288.5       286.1       283.3    
  10    302.6       302.5       302.4       302.1       301.8       301.4       300.9       300.4       299.8       299.4    
        299.1       298.8       298.7       298.6       298.5       298.3       298.0       297.7       297.1       296.2    
        295.0       293.7       292.2       290.5       288.5       286.1       283.3    
  11    302.6       302.5       302.4       302.1       301.8       301.4       300.9       300.4       299.8       299.4    
        299.0       298.8       298.6       298.5       298.4       298.3       298.0       297.6       297.1       296.2    
        295.0       293.7       292.2       290.5       288.5       286.1       283.3    
  12    302.6       302.5       302.4       302.1       301.8       301.4       300.9       300.4       299.8       299.4    
        299.0       298.8       298.6       298.5       298.4       298.3       298.0       297.6       297.1       296.2    
        295.0       293.7       292.2       290.5       288.5       286.1       283.3    
  13    302.6       302.5       302.4       302.1       301.8       301.4       300.9       300.4       299.8       299.4    
        299.0       298.8       298.6       298.5       298.4       298.3       298.0       297.6       297.1       296.2    
        295.0       293.7       292.2       290.5       288.5       286.1       283.3    
  14    302.6       302.5       302.4       302.1       301.8       301.4       300.9       300.4       299.8       299.4    
        299.0       298.8       298.6       298.5       298.4       298.3       298.0       297.6       297.1       296.2    
        295.0       293.7       292.2       290.5       288.5       286.1       283.3    
  15    302.6       302.5       302.4       302.1       301.8       301.4       300.9       300.4       299.8       299.4    
        299.0       298.8       298.6       298.5       298.4       298.3       298.0       297.6       297.1       296.2    
        295.0       293.7       292.2       290.5       288.5       286.1       283.3    
  16    302.6       302.5       302.4       302.1       301.8       301.4       300.9       300.4       299.8       299.4    
        299.0       298.8       298.6       298.5       298.4       298.3       298.0       297.6       297.1       296.2    
        295.0       293.7       292.2       290.5       288.5       286.1       283.3    
  17    302.6       302.5       302.4       302.1       301.8       301.4       300.9       300.4       299.8       299.4    
        299.0       298.8       298.6       298.5       298.4       298.3       298.0       297.6       297.1       296.2    
        295.0       293.7       292.2       290.5       288.5       286.1       283.3    
  18    302.6       302.5       302.4       302.1       301.8       301.4       300.9       300.4       299.8       299.4    
        299.1       298.8       298.7       298.6       298.5       298.3       298.0       297.7       297.1       296.2    
        295.0       293.7       292.2       290.5       288.5       286.1       283.3    
  19    302.6       302.5       302.4       302.2       301.8       301.4       301.0       300.4       299.8       299.4    
        299.1       298.8       298.7       298.6       298.5       298.3       298.1       297.7       297.1       296.2    
        295.1       293.8       292.2       290.5       288.5       286.1       283.3    
  20    302.6       302.6       302.4       302.2       301.9       301.5       301.0       300.4       299.9       299.4    
        299.1       298.9       298.7       298.6       298.5       298.4       298.1       297.7       297.1       296.2    
        295.1       293.8       292.3       290.5       288.5       286.1       283.3    
  21    302.7       302.6       302.4       302.2       301.9       301.5       301.0       300.5       299.9       299.5    
        299.2       298.9       298.8       298.7       298.6       298.4       298.1       297.8       297.2       296.3    
        295.1       293.8       292.3       290.5       288.5       286.1       283.3    
  22    302.7       302.6       302.4       302.2       301.9       301.5       301.1       300.5       300.0       299.5    
        299.2       299.0       298.8       298.7       298.6       298.5       298.2       297.8       297.2       296.3    
        295.2       293.8       292.3       290.6       288.5       286.1       283.3    
  23    302.7       302.6       302.5       302.2       301.9       301.5       301.1       300.6       300.0       299.6    
        299.3       299.0       298.9       298.8       298.7       298.5       298.3       297.9       297.3       296.4    
        295.2       293.9       292.3       290.6       288.5       286.1       283.3    
  24    302.7       302.6       302.5       302.3       302.0       301.6       301.1       300.6       300.1       299.6    
        299.3       299.1       298.9       298.8       298.7       298.6       298.3       297.9       297.3       296.4    
        295.2       293.9       292.4       290.6       288.6       286.2       283.3    
  25    302.7       302.6       302.5       302.3       302.0       301.6       301.2       300.6       300.1       299.7    
        299.4       299.1       299.0       298.9       298.8       298.6       298.3       297.9       297.3       296.4    
        295.3       293.9       292.4       290.6       288.6       286.2       283.3    
  26    302.7       302.7       302.5       302.3       302.0       301.6       301.2       300.6       300.1       299.7    
        299.4       299.1       299.0       298.9       298.8       298.6       298.4       298.0       297.4       296.5    
        295.3       293.9       292.4       290.6       288.6       286.2       283.3    
  27    302.7       302.7       302.5       302.3       302.0       301.6       301.2       300.7       300.1       299.7    
        299.4       299.1       299.0       298.9       298.8       298.6       298.4       298.0       297.4       296.5    
        295.3       293.9       292.4       290.6       288.6       286.2       283.3    



                       INITIAL HEAD FOR LAYER   2
 READING BINARY ON UNIT  65

            1           2           3           4           5           6           7           8           9          10
           11          12          13          14          15          16          17          18          19          20
           21          22          23          24          25          26          27
 ........................................................................................................................
   1    297.8       297.7       297.6       297.4       297.2       296.9       296.5       296.2       295.8       295.5    
        295.4       295.2       295.1       295.1       295.0       294.9       294.8       294.6       294.3       293.9    
        293.5       293.0       292.6       292.2       291.8       291.5       291.3    
   2    297.8       297.7       297.6       297.4       297.1       296.8       296.5       296.1       295.8       295.5    
        295.3       295.2       295.1       295.0       295.0       294.9       294.7       294.6       294.3       293.9    
        293.4       293.0       292.6       292.1       291.8       291.4       291.2    
   3    297.7       297.7       297.5       297.3       297.1       296.8       296.4       296.0       295.7       295.4    
        295.2       295.1       295.0       294.9       294.9       294.8       294.6       294.5       294.2       293.8    
        293.4       292.9       292.5       292.1       291.7       291.4       291.2    
   4    297.7       297.6       297.5       297.3       297.0       296.7       296.3       295.9       295.5       295.2    
        295.0       294.9       294.8       294.8       294.7       294.6       294.5       294.3       294.0       293.7    
        293.2       292.8       292.4       292.0       291.7       291.4       291.2    
   5    297.7       297.6       297.4       297.2       296.9       296.6       296.1       295.7       295.3       295.0    
        294.8       294.7       294.6       294.5       294.5       294.4       294.2       294.1       293.8       293.5    
        293.1       292.7       292.3       292.0       291.6       291.3       291.1    
   6    297.6       297.5       297.4       297.1       296.8       296.4       295.9       295.4       295.0       294.7    
        294.5       294.3       294.2       294.2       294.1       294.0       293.9       293.7       293.5       293.2    
        292.9       292.6       292.2       291.9       291.5       291.3       291.1    
   7    297.5       297.5       297.3       297.0       296.7       296.2       295.7       295.1       294.6       294.3    
        294.0       293.9       293.8       293.7       293.7       293.6       293.5       293.3       293.1       292.9    
        292.7       292.4       292.1       291.8       291.5       291.2       291.0    
   8    297.5       297.4       297.2       296.9       296.5       296.1       295.5       294.8       294.2       293.7    
        293.5       293.3       293.2       293.1       293.1       293.0       292.9       292.8       292.7       292.6    
        292.4       292.2       292.0       291.7       291.4       291.2       291.0    
   9    297.5       297.4       297.2       296.9       296.5       295.9       295.3       294.5       293.7       293.2    
        292.8       292.6       292.5       292.5       292.4       292.4       292.3       292.2       292.2       292.3    
        292.2       292.1       291.9       291.6       291.4       291.1       290.9    
  10    297.5       297.4       297.2       296.8       296.4       295.9       295.2       294.3       293.4       292.8    
        292.4       292.1       292.0       292.0       291.9       291.8       291.8       291.8       291.9       292.1    
        292.1       292.0       291.8       291.6       291.3       291.1       290.9    
  11    297.4       297.3       297.1       296.8       296.4       295.8       295.1       294.2       293.3       292.5    
        292.1       291.8       291.7       291.6       291.6       291.5       291.5       291.6       291.8       292.0    
        292.1       292.0       291.8       291.6       291.3       291.1       290.9    
  12    297.4       297.3       297.1       296.8       296.4       295.8       295.1       294.2       293.2       292.4    
        291.9       291.7       291.5       291.5       291.4       291.4       291.4       291.5       291.7       291.9    
        292.0       292.0       291.8       291.6       291.3       291.1       290.9    
  13    297.4       297.3       297.1       296.8       296.4       295.8       295.1       294.2       293.2       292.4    
        291.9       291.6       291.5       291.4       291.4       291.3       291.3       291.5       291.7       291.9    
        292.0       292.0       291.8       291.6       291.3       291.1       290.9    
  14    297.4       297.3       297.1       296.8       296.4       295.8       295.1       294.2       293.2       292.4    
        291.9       291.6       291.5       291.4       291.3       291.3       291.3       291.5       291.7       291.9    
        292.0       292.0       291.8       291.6       291.3       291.1       290.9    
  15    297.4       297.3       297.1       296.8       296.4       295.8       295.1       294.2       293.2       292.4    
        291.9       291.6       291.5       291.4       291.4       291.3       291.3       291.5       291.7       291.9    
        292.0       292.0       291.8       291.6       291.3       291.1       290.9    
  16    297.4       297.3       297.1       296.8       296.4       295.8       295.1       294.2       293.2       292.4    
        291.9       291.7       291.5       291.5       291.4       291.4       291.4       291.5       291.7       291.9    
        292.0       292.0       291.8       291.6       291.3       291.1       290.9    
  17    297.4       297.3       297.1       296.8       296.4       295.8       295.1       294.2       293.3       292.5    
        292.1       291.8       291.7       291.6       291.6       291.5       291.5       291.6       291.8       292.0    
        292.1       292.0       291.8       291.6       291.3       291.1       290.9    
  18    297.5       297.4       297.2       296.8       296.4       295.9       295.2       294.3       293.4       292.8    
        292.4       292.1       292.0       292.0       291.9       291.8       291.8       291.8       291.9       292.1    
        292.1       292.0       291.8       291.6       291.3       291.1       290.9    
  19    297.5       297.4       297.2       296.9       296.5       295.9       295.3       294.5       293.7       293.2    
        292.8       292.6       292.5       292.5       292.4       292.4       292.3       292.2       292.2       292.3    
        292.2       292.1       291.9       291.6       291.4       291.1       290.9    
  20    297.5       297.4       297.2       296.9       296.5       296.1       295.5       294.8       294.2       293.7    
        293.5       293.3       293.2       293.1       293.1       293.0       292.9       292.8       292.7       292.6    
        292.4       292.2       292.0       291.7       291.4       291.2       291.0    
  21    297.5       297.5       297.3       297.0       296.7       296.2       295.7       295.1       294.6       294.3    
        294.0       293.9       293.8       293.7       293.7       293.6       293.5       293.3       293.1       292.9    
        292.7       292.4       292.1       291.8       291.5       291.2       291.0    
  22    297.6       297.5       297.4       297.1       296.8       296.4       295.9       295.4       295.0       294.7    
        294.5       294.3       294.2       294.2       294.1       294.0       293.9       293.7       293.5       293.2    
        292.9       292.6       292.2       291.9       291.5       291.3       291.1    
  23    297.7       297.6       297.4       297.2       296.9       296.6       296.1       295.7       295.3       295.0    
        294.8       294.7       294.6       294.5       294.5       294.4       294.2       294.1       293.8       293.5    
        293.1       292.7       292.3       292.0       291.6       291.3       291.1    
  24    297.7       297.6       297.5       297.3       297.0       296.7       296.3       295.9       295.5       295.2    
        295.0       294.9       294.8       294.8       294.7       294.6       294.5       294.3       294.0       293.7    
        293.2       292.8       292.4       292.0       291.7       291.4       291.2    
  25    297.7       297.7       297.5       297.3       297.1       296.8       296.4       296.0       295.7       295.4    
        295.2       295.1       295.0       294.9       294.9       294.8       294.6       294.5       294.2       293.8    
        293.4       292.9       292.5       292.1       291.7       291.4       291.2    
  26    297.8       297.7       297.6       297.4       297.1       296.8       296.5       296.1       295.8       295.5    
        295.3       295.2       295.1       295.0       295.0       294.9       294.7       294.6       294.3       293.9    
        293.4       293.0       292.6       292.1       291.8       291.4       291.2    
  27    297.8       297.7       297.6       297.4       297.2       296.9       296.5       296.2       295.8       295.5    
        295.4       295.2       295.1       295.1       295.0       294.9       294.8       294.6       294.3       293.9    
        293.5       293.0       292.6       292.2       291.8       291.5       291.3    



                       INITIAL HEAD FOR LAYER   3
 READING BINARY ON UNIT  65

            1           2           3           4           5           6           7           8           9          10
           11          12          13          14          15          16          17          18          19          20
           21          22          23          24          25          26          27
 ........................................................................................................................
   1    297.6       297.5       297.4       297.2       297.0       296.7       296.4       296.0       295.6       295.4    
        295.2       295.1       295.0       294.9       294.9       294.8       294.7       294.5       294.2       293.8    
        293.4       293.0       292.6       292.2       291.9       291.7       291.5    
   2    297.6       297.5       297.4       297.2       297.0       296.7       296.3       295.9       295.6       295.3    
        295.2       295.0       294.9       294.9       294.8       294.7       294.6       294.4       294.2       293.8    
        293.4       293.0       292.6       292.2       291.9       291.6       291.5    
   3    297.6       297.5       297.4       297.2       296.9       296.6       296.2       295.9       295.5       295.2    
        295.0       294.9       294.8       294.8       294.7       294.6       294.5       294.3       294.1       293.7    
        293.3       292.9       292.5       292.2       291.8       291.6       291.5    
   4    297.5       297.4       297.3       297.1       296.8       296.5       296.1       295.7       295.3       295.1    
        294.9       294.7       294.7       294.6       294.5       294.5       294.3       294.2       293.9       293.6    
        293.2       292.8       292.4       292.1       291.8       291.6       291.4    
   5    297.5       297.4       297.2       297.0       296.7       296.4       296.0       295.5       295.1       294.8    
        294.6       294.5       294.4       294.4       294.3       294.2       294.1       293.9       293.7       293.4    
        293.0       292.7       292.3       292.0       291.7       291.5       291.4    
   6    297.4       297.3       297.2       296.9       296.6       296.2       295.8       295.3       294.8       294.5    
        294.3       294.1       294.1       294.0       293.9       293.9       293.7       293.6       293.4       293.1    
        292.8       292.5       292.2       291.9       291.7       291.4       291.3    
   7    297.4       297.3       297.1       296.8       296.5       296.0       295.5       294.9       294.4       294.0    
        293.8       293.7       293.6       293.5       293.5       293.4       293.3       293.1       293.0       292.8    
        292.6       292.3       292.1       291.8       291.6       291.4       291.3    
   8    297.3       297.2       297.0       296.7       296.3       295.9       295.3       294.6       293.9       293.4    
        293.1       293.0       292.9       292.8       292.8       292.7       292.6       292.5       292.5       292.4    
        292.3       292.2       292.0       291.7       291.5       291.3       291.2    
   9    297.3       297.2       297.0       296.7       296.3       295.7       295.0       294.2       293.3       292.7    
        292.3       292.1       291.9       291.9       291.8       291.8       291.8       291.8       291.9       292.0    
        292.1       292.0       291.9       291.7       291.5       291.3       291.2    
  10    297.3       297.2       297.0       296.6       296.2       295.6       294.9       294.0       292.9       292.1    
        291.5       291.1       291.0       290.9       290.9       290.9       290.9       291.2       291.5       291.8    
        292.0       291.9       291.8       291.6       291.4       291.3       291.2    
  11    297.3       297.2       296.9       296.6       296.2       295.6       294.9       293.9       292.7       291.7    
        290.8       290.3       290.1       290.0       290.0       290.0       290.3       290.7       291.3       291.7    
        291.9       291.9       291.8       291.6       291.4       291.3       291.2    
  12    297.2       297.1       296.9       296.6       296.2       295.6       294.8       293.8       292.6       291.4    
        290.5       289.7       289.4       289.3       289.3       289.5       289.9       290.5       291.2       291.7    
        291.9       291.9       291.8       291.6       291.4       291.3       291.2    
  13    297.2       297.1       296.9       296.6       296.2       295.6       294.8       293.8       292.6       291.4    
        290.3       289.5       289.1       288.9       288.9       289.2       289.8       290.5       291.1       291.7    
        291.9       291.9       291.8       291.6       291.4       291.3       291.2    
  14    297.2       297.1       296.9       296.6       296.2       295.6       294.8       293.8       292.6       291.4    
        290.3       289.5       289.0       288.8       288.9       289.2       289.8       290.4       291.1       291.7    
        291.9       291.9       291.8       291.6       291.4       291.3       291.2    
  15    297.2       297.1       296.9       296.6       296.2       295.6       294.8       293.8       292.6       291.4    
        290.3       289.5       289.1       288.9       288.9       289.2       289.8       290.5       291.1       291.7    
        291.9       291.9       291.8       291.6       291.4       291.3       291.2    
  16    297.2       297.1       296.9       296.6       296.2       295.6       294.8       293.8       292.6       291.4    
        290.5       289.7       289.4       289.3       289.3       289.5       289.9       290.5       291.2       291.7    
        291.9       291.9       291.8       291.6       291.4       291.3       291.2    
  17    297.3       297.2       296.9       296.6       296.2       295.6       294.9       293.9       292.7       291.7    
        290.8       290.3       290.1       290.0       290.0       290.0       290.3       290.7       291.3       291.7    
        291.9       291.9       291.8       291.6       291.4       291.3       291.2    
  18    297.3       297.2       297.0       296.6       296.2       295.6       294.9       294.0       292.9       292.1    
        291.5       291.1       291.0       290.9       290.9       290.9       290.9       291.2       291.5       291.8    
        292.0       291.9       291.8       291.6       291.4       291.3       291.2    
  19    297.3       297.2       297.0       296.7       296.3       295.7       295.0       294.2       293.3       292.7    
        292.3       292.1       291.9       291.9       291.8       291.8       291.8       291.8       291.9       292.0    
        292.1       292.0       291.9       291.7       291.5       291.3       291.2    
  20    297.3       297.2       297.0       296.7       296.3       295.9       295.3       294.6       293.9       293.4    
        293.1       293.0       292.9       292.8       292.8       292.7       292.6       292.5       292.5       292.4    
        292.3       292.2       292.0       291.7       291.5       291.3       291.2    
  21    297.4       297.3       297.1       296.8       296.5       296.0       295.5       294.9       294.4       294.0    
        293.8       293.7       293.6       293.5       293.5       293.4       293.3       293.1       293.0       292.8    
        292.6       292.3       292.1       291.8       291.6       291.4       291.3    
  22    297.4       297.3       297.2       296.9       296.6       296.2       295.8       295.3       294.8       294.5    
        294.3       294.1       294.1       294.0       293.9       293.9       293.7       293.6       293.4       293.1    
        292.8       292.5       292.2       291.9       291.7       291.4       291.3    
  23    297.5       297.4       297.2       297.0       296.7       296.4       296.0       295.5       295.1       294.8    
        294.6       294.5       294.4       294.4       294.3       294.2       294.1       293.9       293.7       293.4    
        293.0       292.7       292.3       292.0       291.7       291.5       291.4    
  24    297.5       297.4       297.3       297.1       296.8       296.5       296.1       295.7       295.3       295.1    
        294.9       294.7       294.7       294.6       294.5       294.5       294.3       294.2       293.9       293.6    
        293.2       292.8       292.4       292.1       291.8       291.6       291.4    
  25    297.6       297.5       297.4       297.2       296.9       296.6       296.2       295.9       295.5       295.2    
        295.0       294.9       294.8       294.8       294.7       294.6       294.5       294.3       294.1       293.7    
        293.3       292.9       292.5       292.2       291.8       291.6       291.5    
  26    297.6       297.5       297.4       297.2       297.0       296.7       296.3       295.9       295.6       295.3    
        295.2       295.0       294.9       294.9       294.8       294.7       294.6       294.4       294.2       293.8    
        293.4       293.0       292.6       292.2       291.9       291.6       291.5    
  27    297.6       297.5       297.4       297.2       297.0       296.7       296.4       296.0       295.6       295.4    
        295.2       295.1       295.0       294.9       294.9       294.8       294.7       294.5       294.2       293.8    
        293.4       293.0       292.6       292.2       291.9       291.7       291.5    



                       INITIAL HEAD FOR LAYER   4
 READING BINARY ON UNIT  65

            1           2           3           4           5           6           7           8           9          10
           11          12          13          14          15          16          17          18          19          20
           21          22          23          24          25          26          27
 ........................................................................................................................
   1    297.5       297.4       297.3       297.1       296.9       296.6       296.2       295.9       295.5       295.3    
        295.1       295.0       294.9       294.8       294.8       294.7       294.6       294.4       294.1       293.8    
        293.4       293.0       292.6       292.3       292.0       291.8       291.7    
   2    297.5       297.4       297.3       297.1       296.8       296.5       296.2       295.8       295.5       295.2    
        295.1       294.9       294.8       294.8       294.7       294.7       294.5       294.3       294.1       293.7    
        293.3       292.9       292.6       292.2       292.0       291.8       291.6    
   3    297.4       297.4       297.2       297.0       296.8       296.5       296.1       295.7       295.4       295.1    
        294.9       294.8       294.7       294.7       294.6       294.5       294.4       294.2       294.0       293.6    
        293.2       292.9       292.5       292.2       291.9       291.7       291.6    
   4    297.4       297.3       297.2       297.0       296.7       296.4       296.0       295.6       295.2       295.0    
        294.8       294.6       294.6       294.5       294.4       294.4       294.2       294.1       293.8       293.5    
        293.1       292.8       292.4       292.1       291.9       291.7       291.6    
   5    297.3       297.3       297.1       296.9       296.6       296.2       295.8       295.4       295.0       294.7    
        294.5       294.4       294.3       294.2       294.2       294.1       294.0       293.8       293.6       293.3    
        293.0       292.6       292.3       292.1       291.8       291.6       291.5    
   6    297.3       297.2       297.0       296.8       296.5       296.1       295.6       295.1       294.7       294.4    
        294.1       294.0       293.9       293.9       293.8       293.7       293.6       293.5       293.3       293.0    
        292.7       292.5       292.2       292.0       291.7       291.6       291.5    
   7    297.2       297.1       297.0       296.7       296.3       295.9       295.4       294.8       294.2       293.9    
        293.6       293.5       293.4       293.3       293.3       293.2       293.1       293.0       292.8       292.7    
        292.5       292.3       292.1       291.9       291.7       291.5       291.4    
   8    297.2       297.1       296.9       296.6       296.2       295.7       295.1       294.4       293.7       293.2    
        292.9       292.7       292.6       292.5       292.5       292.4       292.3       292.3       292.3       292.3    
        292.2       292.1       292.0       291.8       291.6       291.4       291.4    
   9    297.1       297.0       296.8       296.5       296.1       295.6       294.9       294.0       293.0       292.2    
        291.7       291.4       291.3       291.2       291.2       291.2       291.2       291.3       291.6       291.9    
        292.0       292.0       291.9       291.7       291.5       291.4       291.3    
  10    297.1       297.0       296.8       296.5       296.1       295.5       294.7       293.7       292.5       291.3    
        290.3       289.6       289.4       289.3       289.3       289.4       289.7       290.4       291.1       291.6    
        291.9       291.9       291.8       291.7       291.5       291.4       291.3    
  11    297.1       297.0       296.8       296.5       296.0       295.5       294.7       293.6       292.1       290.4    
        288.7       287.1       286.4       286.2       286.3       286.9       288.1       289.6       290.7       291.5    
        291.8       291.9       291.8       291.7       291.5       291.4       291.3    
  12    297.1       297.0       296.8       296.5       296.0       295.4       294.6       293.5       292.0       289.9    
        287.3       283.9       281.5       280.8       281.4       283.7       286.7       289.0       290.6       291.4    
        291.8       291.8       291.8       291.7       291.5       291.4       291.3    
  13    297.1       297.0       296.8       296.5       296.0       295.4       294.6       293.5       291.9       289.8    
        286.6       281.6       275.2       270.9       275.1       281.3       286.1       288.9       290.5       291.4    
        291.8       291.8       291.8       291.7       291.5       291.4       291.3    
  14    297.1       297.0       296.8       296.5       296.0       295.4       294.6       293.5       291.9       289.7    
        286.5       280.9       271.0       251.2       270.9       280.6       285.9       288.8       290.5       291.4    
        291.8       291.8       291.8       291.7       291.5       291.4       291.3    
  15    297.1       297.0       296.8       296.5       296.0       295.4       294.6       293.5       291.9       289.8    
        286.6       281.6       275.2       270.9       275.1       281.3       286.1       288.9       290.5       291.4    
        291.8       291.8       291.8       291.7       291.5       291.4       291.3    
  16    297.1       297.0       296.8       296.5       296.0       295.4       294.6       293.5       292.0       289.9    
        287.3       283.9       281.5       280.8       281.4       283.7       286.7       289.0       290.6       291.4    
        291.8       291.8       291.8       291.7       291.5       291.4       291.3    
  17    297.1       297.0       296.8       296.5       296.0       295.5       294.7       293.6       292.1       290.4    
        288.7       287.1       286.4       286.2       286.3       286.9       288.1       289.6       290.7       291.5    
        291.8       291.9       291.8       291.7       291.5       291.4       291.3    
  18    297.1       297.0       296.8       296.5       296.1       295.5       294.7       293.7       292.5       291.3    
        290.3       289.6       289.4       289.3       289.3       289.4       289.7       290.4       291.1       291.6    
        291.9       291.9       291.8       291.7       291.5       291.4       291.3    
  19    297.1       297.0       296.8       296.5       296.1       295.6       294.9       294.0       293.0       292.2    
        291.7       291.4       291.3       291.2       291.2       291.2       291.2       291.3       291.6       291.9    
        292.0       292.0       291.9       291.7       291.5       291.4       291.3    
  20    297.2       297.1       296.9       296.6       296.2       295.7       295.1       294.4       293.7       293.2    
        292.9       292.7       292.6       292.5       292.5       292.4       292.3       292.3       292.3       292.3    
        292.2       292.1       292.0       291.8       291.6       291.4       291.4    
  21    297.2       297.1       297.0       296.7       296.3       295.9       295.4       294.8       294.2       293.9    
        293.6       293.5       293.4       293.3       293.3       293.2       293.1       293.0       292.8       292.7    
        292.5       292.3       292.1       291.9       291.7       291.5       291.4    
  22    297.3       297.2       297.0       296.8       296.5       296.1       295.6       295.1       294.7       294.4    
        294.1       294.0       293.9       293.9       293.8       293.7       293.6       293.5       293.3       293.0    
        292.7       292.5       292.2       292.0       291.7       291.6       291.5    
  23    297.3       297.3       297.1       296.9       296.6       296.2       295.8       295.4       295.0       294.7    
        294.5       294.4       294.3       294.2       294.2       294.1       294.0       293.8       293.6       293.3    
        293.0       292.6       292.3       292.1       291.8       291.6       291.5    
  24    297.4       297.3       297.2       297.0       296.7       296.4       296.0       295.6       295.2       295.0    
        294.8       294.6       294.6       294.5       294.4       294.4       294.2       294.1       293.8       293.5    
        293.1       292.8       292.4       292.1       291.9       291.7       291.6    
  25    297.4       297.4       297.2       297.0       296.8       296.5       296.1       295.7       295.4       295.1    
        294.9       294.8       294.7       294.7       294.6       294.5       294.4       294.2       294.0       293.6    
        293.2       292.9       292.5       292.2       291.9       291.7       291.6    
  26    297.5       297.4       297.3       297.1       296.8       296.5       296.2       295.8       295.5       295.2    
        295.1       294.9       294.8       294.8       294.7       294.7       294.5       294.3       294.1       293.7    
        293.3       292.9       292.6       292.2       292.0       291.8       291.6    
  27    297.5       297.4       297.3       297.1       296.9       296.6       296.2       295.9       295.5       295.3    
        295.1       295.0       294.9       294.8       294.8       294.7       294.6       294.4       294.1       293.8    
        293.4       293.0       292.6       292.3       292.0       291.8       291.7    



                       INITIAL HEAD FOR LAYER   5
 READING BINARY ON UNIT  65

            1           2           3           4           5           6           7           8           9          10
           11          12          13          14          15          16          17          18          19          20
           21          22          23          24          25          26          27
 ........................................................................................................................
   1    297.4       297.4       297.2       297.0       296.8       296.5       296.2       295.8       295.5       295.2    
        295.1       294.9       294.9       294.8       294.7       294.7       294.5       294.4       294.1       293.7    
        293.3       293.0       292.6       292.3       292.0       291.8       291.7    
   2    297.4       297.3       297.2       297.0       296.8       296.5       296.1       295.8       295.4       295.2    
        295.0       294.9       294.8       294.7       294.7       294.6       294.5       294.3       294.0       293.7    
        293.3       292.9       292.6       292.3       292.0       291.8       291.7    
   3    297.4       297.3       297.2       297.0       296.7       296.4       296.1       295.7       295.3       295.1    
        294.9       294.8       294.7       294.6       294.6       294.5       294.4       294.2       293.9       293.6    
        293.2       292.9       292.5       292.2       292.0       291.8       291.7    
   4    297.3       297.3       297.1       296.9       296.6       296.3       295.9       295.5       295.2       294.9    
        294.7       294.6       294.5       294.4       294.4       294.3       294.2       294.0       293.8       293.5    
        293.1       292.8       292.4       292.2       291.9       291.7       291.6    
   5    297.3       297.2       297.0       296.8       296.5       296.2       295.8       295.3       294.9       294.6    
        294.5       294.3       294.2       294.2       294.1       294.1       293.9       293.8       293.5       293.2    
        292.9       292.6       292.3       292.1       291.8       291.7       291.6    
   6    297.2       297.1       297.0       296.7       296.4       296.0       295.6       295.0       294.6       294.3    
        294.1       293.9       293.9       293.8       293.8       293.7       293.6       293.4       293.2       293.0    
        292.7       292.5       292.2       292.0       291.8       291.6       291.5    
   7    297.2       297.1       296.9       296.6       296.3       295.8       295.3       294.7       294.2       293.8    
        293.6       293.4       293.3       293.3       293.2       293.1       293.0       292.9       292.8       292.6    
        292.5       292.3       292.1       291.9       291.7       291.6       291.5    
   8    297.1       297.0       296.8       296.5       296.1       295.6       295.0       294.3       293.6       293.1    
        292.8       292.6       292.5       292.5       292.4       292.3       292.3       292.2       292.2       292.2    
        292.2       292.1       292.0       291.8       291.6       291.5       291.4    
   9    297.1       297.0       296.8       296.5       296.0       295.5       294.8       293.9       292.9       292.2    
        291.7       291.5       291.4       291.3       291.3       291.2       291.2       291.3       291.5       291.8    
        291.9       291.9       291.9       291.7       291.6       291.5       291.4    
  10    297.1       297.0       296.8       296.4       296.0       295.4       294.6       293.6       292.4       291.4    
        290.7       290.3       290.2       290.1       290.1       290.1       290.2       290.5       291.0       291.5    
        291.8       291.9       291.8       291.7       291.6       291.4       291.4    
  11    297.1       297.0       296.7       296.4       296.0       295.4       294.6       293.5       292.1       290.9    
        290.0       289.4       289.1       289.1       289.0       289.1       289.4       290.0       290.8       291.4    
        291.7       291.8       291.8       291.7       291.5       291.4       291.4    
  12    297.1       297.0       296.7       296.4       296.0       295.4       294.5       293.4       292.0       290.6    
        289.5       288.7       288.3       288.2       288.2       288.4       289.0       289.8       290.6       291.4    
        291.7       291.8       291.8       291.7       291.5       291.4       291.4    
  13    297.1       297.0       296.7       296.4       296.0       295.4       294.5       293.4       292.0       290.6    
        289.3       288.4       288.0       287.8       287.8       288.2       288.8       289.7       290.6       291.3    
        291.7       291.8       291.8       291.7       291.5       291.4       291.4    
  14    297.1       297.0       296.7       296.4       296.0       295.4       294.5       293.4       292.0       290.5    
        289.3       288.4       287.9       287.7       287.8       288.1       288.8       289.7       290.6       291.3    
        291.7       291.8       291.8       291.7       291.5       291.4       291.4    
  15    297.1       297.0       296.7       296.4       296.0       295.4       294.5       293.4       292.0       290.6    
        289.3       288.4       288.0       287.8       287.8       288.2       288.8       289.7       290.6       291.3    
        291.7       291.8       291.8       291.7       291.5       291.4       291.4    
  16    297.1       297.0       296.7       296.4       296.0       295.4       294.5       293.4       292.0       290.6    
        289.5       288.7       288.3       288.2       288.2       288.4       289.0       289.8       290.6       291.4    
        291.7       291.8       291.8       291.7       291.5       291.4       291.4    
  17    297.1       297.0       296.7       296.4       296.0       295.4       294.6       293.5       292.1       290.9    
        290.0       289.4       289.1       289.1       289.0       289.1       289.4       290.0       290.8       291.4    
        291.7       291.8       291.8       291.7       291.5       291.4       291.4    
  18    297.1       297.0       296.8       296.4       296.0       295.4       294.6       293.6       292.4       291.4    
        290.7       290.3       290.2       290.1       290.1       290.1       290.2       290.5       291.0       291.5    
        291.8       291.9       291.8       291.7       291.6       291.4       291.4    
  19    297.1       297.0       296.8       296.5       296.0       295.5       294.8       293.9       292.9       292.2    
        291.7       291.5       291.4       291.3       291.3       291.2       291.2       291.3       291.5       291.8    
        291.9       291.9       291.9       291.7       291.6       291.5       291.4    
  20    297.1       297.0       296.8       296.5       296.1       295.6       295.0       294.3       293.6       293.1    
        292.8       292.6       292.5       292.5       292.4       292.3       292.3       292.2       292.2       292.2    
        292.2       292.1       292.0       291.8       291.6       291.5       291.4    
  21    297.2       297.1       296.9       296.6       296.3       295.8       295.3       294.7       294.2       293.8    
        293.6       293.4       293.3       293.3       293.2       293.1       293.0       292.9       292.8       292.6    
        292.5       292.3       292.1       291.9       291.7       291.6       291.5    
  22    297.2       297.1       297.0       296.7       296.4       296.0       295.6       295.0       294.6       294.3    
        294.1       293.9       293.9       293.8       293.8       293.7       293.6       293.4       293.2       293.0    
        292.7       292.5       292.2       292.0       291.8       291.6       291.5    
  23    297.3       297.2       297.0       296.8       296.5       296.2       295.8       295.3       294.9       294.6    
        294.5       294.3       294.2       294.2       294.1       294.1       293.9       293.8       293.5       293.2    
        292.9       292.6       292.3       292.1       291.8       291.7       291.6    
  24    297.3       297.3       297.1       296.9       296.6       296.3       295.9       295.5       295.2       294.9    
        294.7       294.6       294.5       294.4       294.4       294.3       294.2       294.0       293.8       293.5    
        293.1       292.8       292.4       292.2       291.9       291.7       291.6    
  25    297.4       297.3       297.2       297.0       296.7       296.4       296.1       295.7       295.3       295.1    
        294.9       294.8       294.7       294.6       294.6       294.5       294.4       294.2       293.9       293.6    
        293.2       292.9       292.5       292.2       292.0       291.8       291.7    
  26    297.4       297.3       297.2       297.0       296.8       296.5       296.1       295.8       295.4       295.2    
        295.0       294.9       294.8       294.7       294.7       294.6       294.5       294.3       294.0       293.7    
        293.3       292.9       292.6       292.3       292.0       291.8       291.7    
  27    297.4       297.4       297.2       297.0       296.8       296.5       296.2       295.8       295.5       295.2    
        295.1       294.9       294.9       294.8       294.7       294.7       294.5       294.4       294.1       293.7    
        293.3       293.0       292.6       292.3       292.0       291.8       291.7    

 OUTPUT CONTROL IS SPECIFIED ONLY AT TIME STEPS FOR WHICH OUTPUT IS DESIRED
 COMPACT CELL-BY-CELL BUDGET FILES WILL BE WRITTEN
 AUXILIARY DATA WILL BE SAVED IN CELL-BY-CELL BUDGET FILES
 HEAD PRINT FORMAT CODE IS   4    DRAWDOWN PRINT FORMAT CODE IS   4
 HEADS WILL BE SAVED ON UNIT  32    DRAWDOWNS WILL BE SAVED ON UNIT   0

 COLUMN TO ROW ANISOTROPY =   1.00000    

     PRIMARY STORAGE COEF =  0.200000     FOR LAYER   1

    HYD. COND. ALONG ROWS =   50.0000     FOR LAYER   1

 VERT HYD COND /THICKNESS =  5.000000E-04 FOR LAYER   1

     PRIMARY STORAGE COEF =  1.000000E-04 FOR LAYER   2

     TRANSMIS. ALONG ROWS =   1250.00     FOR LAYER   2

 VERT HYD COND /THICKNESS =  1.000000E-02 FOR LAYER   2

     PRIMARY STORAGE COEF =  1.000000E-04 FOR LAYER   3

     TRANSMIS. ALONG ROWS =   1250.00     FOR LAYER   3

 VERT HYD COND /THICKNESS =  1.000000E-02 FOR LAYER   3

     PRIMARY STORAGE COEF =  1.000000E-04 FOR LAYER   4

     TRANSMIS. ALONG ROWS =   1250.00     FOR LAYER   4

 VERT HYD COND /THICKNESS =  1.000000E-02 FOR LAYER   4

     PRIMARY STORAGE COEF =  1.000000E-04 FOR LAYER   5

     TRANSMIS. ALONG ROWS =   1250.00     FOR LAYER   5


     0 Well parameters


     0 River parameters


     0 Recharge parameters
1
                            STRESS PERIOD NO.   1, LENGTH =   182500.0    
                            ----------------------------------------------

                              NUMBER OF TIME STEPS =     1

                               MULTIPLIER FOR DELT =     1.000

                            INITIAL TIME STEP SIZE =   182500.0    

 WELL NO.  LAYER   ROW   COL   STRESS RATE   IFACE           
 ------------------------------------------------------------
      1      4     14     14     -0.8000E+05       0.000    

     1 WELLS

 REACH NO.  LAYER   ROW   COL     STAGE      CONDUCTANCE     BOTTOM EL.   IFACE           
 -----------------------------------------------------------------------------------------
      1      1      1     27       280.0           3200.           275.0           6.000    
      2      1      2     27       280.0           3200.           275.0           6.000    
      3      1      3     27       280.0           3200.           275.0           6.000    
      4      1      4     27       280.0           3200.           275.0           6.000    
      5      1      5     27       280.0           3200.           275.0           6.000    
      6      1      6     27       280.0           3200.           275.0           6.000    
      7      1      7     27       280.0           3200.           275.0           6.000    
      8      1      8     27       280.0           3200.           275.0           6.000    
      9      1      9     27       280.0           2400.           275.0           6.000    
     10      1     10     27       280.0           1600.           275.0           6.000    
     11      1     11     27       280.0           1200.           275.0           6.000    
     12      1     12     27       280.0           800.0           275.0           6.000    
     13      1     13     27       280.0           480.0           275.0           6.000    
     14      1     14     27       280.0           320.0           275.0           6.000    
     15      1     15     27       280.0           480.0           275.0           6.000    
     16      1     16     27       280.0           800.0           275.0           6.000    
     17      1     17     27       280.0           1200.           275.0           6.000    
     18      1     18     27       280.0           1600.           275.0           6.000    
     19      1     19     27       280.0           2400.           275.0           6.000    
     20      1     20     27       280.0           3200.           275.0           6.000    
     21      1     21     27       280.0           3200.           275.0           6.000    
     22      1     22     27       280.0           3200.           275.0           6.000    
     23      1     23     27       280.0           3200.           275.0           6.000    
     24      1     24     27       280.0           3200.           275.0           6.000    
     25      1     25     27       280.0           3200.           275.0           6.000    
     26      1     26     27       280.0           3200.           275.0           6.000    
     27      1     27     27       280.0           3200.           275.0           6.000    

    27 RIVER REACHES

                 RECHARGE =  4.500000E-03
 
 SOLVING FOR HEAD 

     1 ITERATIONS FOR TIME STEP   1 IN STRESS PERIOD  1

 MAXIMUM HEAD CHANGE FOR EACH ITERATION:

    HEAD CHANGE   HEAD CHANGE   HEAD CHANGE   HEAD CHANGE   HEAD CHANGE
  LAYER,ROW,COL LAYER,ROW,COL LAYER,ROW,COL LAYER,ROW,COL LAYER,ROW,COL
 ----------------------------------------------------------------------
     0.6799E-04
  (  1, 21,  7)


 OUTPUT CONTROL FOR STRESS PERIOD  1   TIME STEP  1
    PRINT HEAD FOR ALL LAYERS
    SAVE HEAD FOR ALL LAYERS
    PRINT BUDGET
    SAVE BUDGET
 UBDSV1 SAVING "         STORAGE" ON UNIT  34 AT TIME STEP  1, STRESS PERIOD  1
 UBDSV2 SAVING "   CONSTANT HEAD" ON UNIT  34 AT TIME STEP  1, STRESS PERIOD  1
 UBDSV1 SAVING "FLOW RIGHT FACE " ON UNIT  34 AT TIME STEP  1, STRESS PERIOD  1
 UBDSV1 SAVING "FLOW FRONT FACE " ON UNIT  34 AT TIME STEP  1, STRESS PERIOD  1
 UBDSV1 SAVING "FLOW LOWER FACE " ON UNIT  34 AT TIME STEP  1, STRESS PERIOD  1
 UBDSV4 SAVING "           WELLS" ON UNIT  34 AT TIME STEP  1, STRESS PERIOD  1
 UBDSV4 SAVING "   RIVER LEAKAGE" ON UNIT  34 AT TIME STEP  1, STRESS PERIOD  1
 UBDSV3 SAVING "        RECHARGE" ON UNIT  34 AT TIME STEP  1, STRESS PERIOD  1
1
              HEAD IN LAYER  1 AT END OF TIME STEP  1 IN STRESS PERIOD  1
  -----------------------------------------------------------------------

           1       2       3       4       5       6       7       8       9      10      11      12      13      14      15
          16      17      18      19      20      21      22      23      24      25      26      27
 ...........................................................................................................................
   1   302.73  302.66  302.51  302.29  302.00  301.63  301.18  300.65  300.12  299.70  299.39  299.15  298.99  298.89  298.79
       298.63  298.36  297.97  297.38  296.47  295.29  293.95  292.41  290.64  288.58  286.17  283.31
   2   302.73  302.65  302.51  302.29  301.99  301.62  301.17  300.64  300.11  299.69  299.37  299.14  298.98  298.88  298.78
       298.62  298.35  297.96  297.37  296.46  295.28  293.94  292.40  290.63  288.58  286.17  283.31
   3   302.72  302.64  302.50  302.27  301.98  301.60  301.15  300.62  300.09  299.67  299.35  299.11  298.96  298.86  298.76
       298.59  298.33  297.94  297.35  296.44  295.26  293.92  292.39  290.62  288.57  286.16  283.31
   4   302.70  302.63  302.48  302.26  301.96  301.58  301.13  300.59  300.06  299.63  299.32  299.08  298.92  298.83  298.72
       298.56  298.30  297.91  297.32  296.41  295.24  293.90  292.37  290.60  288.55  286.15  283.30
   5   302.69  302.61  302.46  302.23  301.93  301.55  301.09  300.56  300.02  299.59  299.28  299.04  298.88  298.78  298.68
       298.52  298.25  297.86  297.28  296.37  295.20  293.87  292.34  290.58  288.54  286.14  283.30
   6   302.67  302.59  302.44  302.21  301.90  301.52  301.06  300.51  299.97  299.54  299.23  298.99  298.83  298.73  298.63
       298.47  298.20  297.82  297.23  296.33  295.16  293.84  292.32  290.56  288.52  286.13  283.29
   7   302.65  302.58  302.42  302.19  301.88  301.49  301.02  300.47  299.92  299.49  299.17  298.93  298.78  298.68  298.58
       298.41  298.15  297.76  297.18  296.28  295.12  293.80  292.29  290.54  288.51  286.12  283.28
   8   302.64  302.56  302.40  302.17  301.85  301.46  300.98  300.43  299.87  299.44  299.12  298.88  298.72  298.62  298.52
       298.36  298.09  297.71  297.13  296.24  295.09  293.77  292.27  290.52  288.49  286.11  283.28
   9   302.63  302.55  302.39  302.15  301.83  301.44  300.96  300.40  299.84  299.40  299.08  298.84  298.68  298.58  298.48
       298.32  298.05  297.67  297.09  296.21  295.06  293.75  292.25  290.51  288.48  286.10  283.27
  10   302.62  302.55  302.39  302.15  301.83  301.43  300.94  300.38  299.82  299.38  299.06  298.82  298.66  298.56  298.46
       298.30  298.03  297.65  297.07  296.19  295.05  293.74  292.24  290.50  288.48  286.10  283.27
  11   302.62  302.54  302.38  302.14  301.82  301.42  300.94  300.37  299.81  299.37  299.05  298.81  298.65  298.55  298.45
       298.28  298.02  297.64  297.06  296.18  295.04  293.74  292.24  290.50  288.48  286.10  283.27
  12   302.62  302.54  302.38  302.14  301.82  301.42  300.94  300.37  299.81  299.37  299.04  298.80  298.65  298.55  298.44
       298.28  298.02  297.64  297.06  296.18  295.04  293.74  292.24  290.50  288.47  286.10  283.27
  13   302.62  302.54  302.38  302.14  301.82  301.42  300.94  300.37  299.81  299.37  299.04  298.80  298.64  298.54  298.44
       298.28  298.02  297.64  297.06  296.18  295.04  293.74  292.24  290.50  288.47  286.10  283.27
  14   302.62  302.54  302.38  302.14  301.82  301.42  300.94  300.37  299.81  299.37  299.04  298.80  298.64  298.54  298.44
       298.28  298.02  297.64  297.06  296.18  295.04  293.74  292.24  290.50  288.47  286.10  283.27
  15   302.62  302.54  302.38  302.14  301.82  301.42  300.94  300.37  299.81  299.37  299.04  298.80  298.64  298.54  298.44
       298.28  298.02  297.64  297.06  296.18  295.04  293.74  292.24  290.50  288.47  286.10  283.27
  16   302.62  302.54  302.38  302.14  301.82  301.42  300.94  300.37  299.81  299.37  299.04  298.80  298.65  298.55  298.44
       298.28  298.02  297.64  297.06  296.18  295.04  293.74  292.24  290.50  288.47  286.10  283.27
  17   302.62  302.54  302.38  302.14  301.82  301.42  300.94  300.37  299.81  299.37  299.05  298.81  298.65  298.55  298.45
       298.28  298.02  297.64  297.06  296.18  295.04  293.74  292.24  290.50  288.48  286.10  283.27
  18   302.62  302.55  302.39  302.15  301.83  301.43  300.94  300.38  299.82  299.38  299.06  298.82  298.66  298.56  298.46
       298.30  298.03  297.65  297.07  296.19  295.05  293.74  292.24  290.50  288.48  286.10  283.27
  19   302.63  302.55  302.39  302.15  301.83  301.44  300.96  300.40  299.84  299.40  299.08  298.84  298.68  298.58  298.48
       298.32  298.05  297.67  297.09  296.21  295.06  293.75  292.25  290.51  288.48  286.10  283.27
  20   302.64  302.56  302.40  302.17  301.85  301.46  300.98  300.43  299.87  299.44  299.12  298.88  298.72  298.62  298.52
       298.36  298.09  297.71  297.13  296.24  295.09  293.77  292.27  290.52  288.49  286.11  283.28
  21   302.65  302.58  302.42  302.19  301.88  301.49  301.02  300.47  299.92  299.49  299.17  298.93  298.78  298.68  298.58
       298.41  298.15  297.76  297.18  296.28  295.12  293.80  292.29  290.54  288.51  286.12  283.28
  22   302.67  302.59  302.44  302.21  301.90  301.52  301.06  300.51  299.97  299.54  299.23  298.99  298.83  298.73  298.63
       298.47  298.20  297.82  297.23  296.33  295.16  293.84  292.32  290.56  288.52  286.13  283.29
  23   302.69  302.61  302.46  302.23  301.93  301.55  301.09  300.56  300.02  299.59  299.27  299.04  298.88  298.78  298.68
       298.52  298.25  297.86  297.28  296.37  295.20  293.87  292.34  290.58  288.54  286.14  283.30
  24   302.70  302.63  302.48  302.25  301.95  301.58  301.13  300.59  300.06  299.63  299.32  299.08  298.92  298.83  298.72
       298.56  298.30  297.91  297.32  296.41  295.24  293.90  292.37  290.60  288.55  286.15  283.30
  25   302.72  302.64  302.50  302.27  301.98  301.60  301.15  300.62  300.09  299.67  299.35  299.11  298.96  298.86  298.76
       298.59  298.33  297.94  297.35  296.44  295.26  293.92  292.39  290.62  288.57  286.16  283.31
  26   302.73  302.65  302.51  302.29  301.99  301.62  301.17  300.64  300.11  299.69  299.37  299.14  298.98  298.88  298.78
       298.62  298.35  297.96  297.37  296.46  295.28  293.94  292.40  290.63  288.58  286.17  283.31
  27   302.73  302.66  302.51  302.29  302.00  301.63  301.18  300.65  300.12  299.70  299.39  299.15  298.99  298.89  298.79
       298.63  298.36  297.97  297.38  296.47  295.29  293.95  292.41  290.64  288.58  286.17  283.31
1
              HEAD IN LAYER  2 AT END OF TIME STEP  1 IN STRESS PERIOD  1
  -----------------------------------------------------------------------

           1       2       3       4       5       6       7       8       9      10      11      12      13      14      15
          16      17      18      19      20      21      22      23      24      25      26      27
 ...........................................................................................................................
   1   297.79  297.72  297.60  297.41  297.17  296.87  296.53  296.16  295.81  295.55  295.36  295.22  295.14  295.08  295.03
       294.94  294.80  294.60  294.32  293.93  293.47  293.02  292.58  292.16  291.78  291.46  291.26
   2   297.77  297.71  297.58  297.39  297.14  296.84  296.50  296.12  295.76  295.50  295.31  295.17  295.08  295.03  294.97
       294.89  294.75  294.55  294.27  293.88  293.43  292.99  292.55  292.14  291.76  291.45  291.24
   3   297.74  297.68  297.54  297.34  297.09  296.78  296.42  296.03  295.66  295.39  295.20  295.07  294.98  294.92  294.87
       294.78  294.64  294.45  294.18  293.79  293.36  292.92  292.50  292.10  291.73  291.42  291.22
   4   297.70  297.63  297.49  297.28  297.01  296.68  296.30  295.89  295.51  295.23  295.04  294.90  294.81  294.75  294.70
       294.61  294.48  294.29  294.02  293.65  293.24  292.83  292.42  292.03  291.67  291.37  291.18
   5   297.65  297.58  297.43  297.20  296.91  296.55  296.14  295.70  295.29  295.00  294.80  294.66  294.57  294.51  294.46
       294.37  294.24  294.06  293.80  293.46  293.08  292.70  292.33  291.96  291.61  291.32  291.13
   6   297.60  297.52  297.36  297.11  296.79  296.40  295.95  295.45  295.00  294.69  294.47  294.33  294.24  294.18  294.13
       294.04  293.91  293.74  293.51  293.22  292.89  292.55  292.21  291.87  291.54  291.26  291.08
   7   297.55  297.46  297.28  297.02  296.67  296.23  295.72  295.15  294.63  294.27  294.04  293.89  293.79  293.74  293.68
       293.60  293.48  293.33  293.14  292.91  292.66  292.38  292.08  291.77  291.47  291.20  291.02
   8   297.50  297.41  297.22  296.93  296.55  296.06  295.47  294.80  294.16  293.74  293.47  293.30  293.20  293.14  293.09
       293.01  292.91  292.79  292.68  292.56  292.41  292.21  291.97  291.69  291.40  291.15  290.98
   9   297.47  297.37  297.17  296.87  296.46  295.93  295.27  294.49  293.71  293.17  292.84  292.64  292.53  292.47  292.42
       292.35  292.28  292.23  292.23  292.25  292.21  292.08  291.88  291.63  291.36  291.12  290.95
  10   297.45  297.35  297.15  296.84  296.42  295.87  295.17  294.30  293.42  292.77  292.36  292.13  292.01  291.95  291.90
       291.84  291.80  291.83  291.93  292.07  292.10  292.02  291.84  291.60  291.34  291.10  290.93
  11   297.45  297.35  297.14  296.83  296.40  295.83  295.11  294.22  293.26  292.54  292.08  291.81  291.68  291.62  291.57
       291.53  291.52  291.60  291.78  291.98  292.05  291.98  291.82  291.59  291.33  291.09  290.92
  12   297.44  297.34  297.14  296.82  296.39  295.82  295.09  294.18  293.20  292.44  291.94  291.65  291.52  291.45  291.41
       291.37  291.38  291.50  291.71  291.94  292.03  291.97  291.81  291.58  291.33  291.09  290.92
  13   297.44  297.34  297.14  296.82  296.39  295.82  295.09  294.17  293.18  292.41  291.90  291.60  291.46  291.40  291.35
       291.32  291.34  291.47  291.69  291.93  292.03  291.97  291.81  291.58  291.33  291.09  290.92
  14   297.44  297.34  297.14  296.82  296.39  295.82  295.09  294.17  293.18  292.41  291.90  291.60  291.45  291.39  291.34
       291.31  291.34  291.46  291.69  291.93  292.03  291.97  291.81  291.58  291.33  291.09  290.92
  15   297.44  297.34  297.14  296.82  296.39  295.82  295.09  294.17  293.18  292.41  291.90  291.60  291.46  291.40  291.35
       291.32  291.34  291.47  291.69  291.93  292.03  291.97  291.81  291.58  291.33  291.09  290.92
  16   297.44  297.34  297.14  296.82  296.39  295.82  295.09  294.18  293.20  292.44  291.94  291.65  291.52  291.45  291.41
       291.37  291.38  291.50  291.71  291.94  292.03  291.97  291.81  291.58  291.33  291.09  290.92
  17   297.45  297.35  297.14  296.83  296.40  295.83  295.11  294.22  293.26  292.54  292.08  291.81  291.68  291.62  291.57
       291.53  291.52  291.60  291.78  291.98  292.05  291.98  291.82  291.59  291.33  291.09  290.92
  18   297.45  297.35  297.15  296.84  296.42  295.87  295.17  294.30  293.42  292.77  292.36  292.13  292.01  291.95  291.90
       291.84  291.80  291.83  291.93  292.07  292.10  292.02  291.84  291.60  291.34  291.10  290.93
  19   297.47  297.37  297.17  296.87  296.46  295.93  295.27  294.49  293.71  293.17  292.84  292.64  292.53  292.47  292.42
       292.35  292.28  292.23  292.23  292.25  292.21  292.08  291.88  291.63  291.36  291.12  290.95
  20   297.50  297.41  297.22  296.93  296.55  296.06  295.47  294.80  294.16  293.74  293.47  293.30  293.20  293.14  293.09
       293.01  292.91  292.79  292.68  292.56  292.41  292.21  291.97  291.69  291.41  291.15  290.98
  21   297.55  297.46  297.28  297.02  296.67  296.23  295.72  295.14  294.63  294.27  294.04  293.89  293.79  293.74  293.68
       293.60  293.48  293.33  293.14  292.91  292.66  292.38  292.08  291.77  291.47  291.20  291.02
  22   297.60  297.52  297.36  297.11  296.79  296.40  295.95  295.45  295.00  294.69  294.47  294.33  294.24  294.18  294.13
       294.04  293.91  293.74  293.51  293.22  292.89  292.55  292.21  291.87  291.54  291.26  291.08
  23   297.65  297.58  297.43  297.20  296.91  296.55  296.14  295.70  295.29  295.00  294.80  294.66  294.57  294.51  294.46
       294.37  294.24  294.06  293.80  293.46  293.08  292.70  292.33  291.96  291.61  291.32  291.13
  24   297.70  297.63  297.49  297.28  297.01  296.68  296.30  295.89  295.51  295.23  295.04  294.90  294.81  294.75  294.70
       294.61  294.48  294.29  294.02  293.65  293.24  292.83  292.42  292.03  291.67  291.37  291.18
  25   297.74  297.68  297.54  297.34  297.09  296.78  296.42  296.03  295.66  295.39  295.20  295.07  294.98  294.92  294.87
       294.78  294.64  294.45  294.18  293.79  293.36  292.93  292.50  292.10  291.73  291.42  291.22
  26   297.77  297.71  297.58  297.39  297.14  296.84  296.50  296.12  295.76  295.50  295.31  295.17  295.08  295.03  294.97
       294.89  294.75  294.55  294.27  293.88  293.43  292.99  292.55  292.14  291.76  291.45  291.24
  27   297.79  297.72  297.60  297.41  297.17  296.87  296.53  296.16  295.81  295.55  295.36  295.22  295.14  295.08  295.03
       294.94  294.80  294.60  294.32  293.93  293.47  293.02  292.58  292.16  291.78  291.46  291.26
1
              HEAD IN LAYER  3 AT END OF TIME STEP  1 IN STRESS PERIOD  1
  -----------------------------------------------------------------------

           1       2       3       4       5       6       7       8       9      10      11      12      13      14      15
          16      17      18      19      20      21      22      23      24      25      26      27
 ...........................................................................................................................
   1   297.60  297.54  297.41  297.23  296.99  296.69  296.36  295.99  295.65  295.39  295.21  295.08  294.99  294.94  294.89
       294.80  294.67  294.48  294.21  293.83  293.41  292.99  292.59  292.23  291.90  291.65  291.51
   2   297.59  297.52  297.39  297.20  296.96  296.66  296.32  295.95  295.60  295.34  295.16  295.02  294.94  294.89  294.83
       294.75  294.61  294.43  294.16  293.79  293.37  292.96  292.57  292.20  291.88  291.64  291.49
   3   297.56  297.49  297.36  297.16  296.90  296.59  296.24  295.85  295.49  295.23  295.05  294.91  294.83  294.78  294.72
       294.64  294.51  294.32  294.06  293.70  293.29  292.89  292.51  292.16  291.85  291.60  291.46
   4   297.51  297.44  297.30  297.09  296.82  296.50  296.12  295.71  295.33  295.06  294.87  294.74  294.65  294.60  294.55
       294.46  294.33  294.15  293.90  293.55  293.17  292.79  292.43  292.09  291.79  291.56  291.42
   5   297.46  297.39  297.24  297.01  296.72  296.36  295.96  295.51  295.11  294.82  294.63  294.49  294.40  294.35  294.30
       294.21  294.09  293.91  293.67  293.35  293.01  292.66  292.33  292.01  291.73  291.50  291.37
   6   297.41  297.33  297.16  296.92  296.60  296.21  295.75  295.25  294.80  294.49  294.28  294.14  294.05  294.00  293.95
       293.87  293.74  293.58  293.37  293.10  292.80  292.51  292.21  291.92  291.66  291.44  291.32
   7   297.35  297.27  297.09  296.83  296.47  296.03  295.51  294.93  294.40  294.04  293.81  293.66  293.57  293.51  293.46
       293.38  293.27  293.13  292.97  292.77  292.56  292.33  292.08  291.83  291.58  291.38  291.26
   8   297.31  297.21  297.02  296.74  296.35  295.85  295.25  294.55  293.89  293.43  293.14  292.97  292.87  292.82  292.77
       292.69  292.60  292.52  292.45  292.39  292.30  292.15  291.96  291.74  291.52  291.33  291.22
   9   297.27  297.18  296.98  296.67  296.26  295.72  295.04  294.20  293.34  292.70  292.29  292.06  291.95  291.89  291.84
       291.79  291.75  291.79  291.90  292.04  292.08  292.02  291.87  291.67  291.47  291.29  291.19
  10   297.26  297.16  296.95  296.64  296.21  295.64  294.92  293.98  292.94  292.07  291.48  291.13  290.98  290.92  290.87
       290.86  290.93  291.16  291.50  291.83  291.96  291.94  291.82  291.64  291.45  291.28  291.17
  11   297.25  297.15  296.94  296.63  296.19  295.61  294.86  293.87  292.71  291.65  290.84  290.32  290.10  290.03  290.00
       290.05  290.29  290.74  291.27  291.72  291.91  291.91  291.80  291.63  291.44  291.27  291.16
  12   297.25  297.15  296.94  296.62  296.18  295.60  294.84  293.83  292.61  291.44  290.45  289.74  289.41  289.31  289.31
       289.47  289.91  290.53  291.17  291.67  291.88  291.90  291.79  291.62  291.44  291.27  291.16
  13   297.25  297.15  296.94  296.62  296.18  295.59  294.83  293.81  292.58  291.37  290.32  289.50  289.05  288.91  288.95
       289.22  289.78  290.46  291.14  291.66  291.88  291.89  291.79  291.62  291.43  291.27  291.16
  14   297.25  297.15  296.94  296.62  296.18  295.59  294.83  293.81  292.57  291.36  290.29  289.45  288.97  288.77  288.86
       289.18  289.75  290.45  291.14  291.65  291.88  291.89  291.79  291.62  291.43  291.27  291.16
  15   297.25  297.15  296.94  296.62  296.18  295.59  294.83  293.81  292.58  291.37  290.32  289.50  289.05  288.91  288.95
       289.22  289.78  290.46  291.14  291.66  291.88  291.89  291.79  291.62  291.43  291.27  291.16
  16   297.25  297.15  296.94  296.62  296.18  295.60  294.84  293.83  292.61  291.44  290.45  289.74  289.41  289.31  289.31
       289.47  289.91  290.53  291.17  291.67  291.88  291.90  291.79  291.62  291.44  291.27  291.16
  17   297.25  297.15  296.94  296.63  296.19  295.61  294.86  293.87  292.71  291.65  290.84  290.32  290.10  290.03  290.00
       290.05  290.29  290.74  291.27  291.72  291.91  291.91  291.80  291.63  291.44  291.27  291.16
  18   297.26  297.16  296.95  296.64  296.21  295.64  294.92  293.98  292.94  292.07  291.48  291.13  290.98  290.92  290.87
       290.86  290.93  291.16  291.50  291.83  291.96  291.94  291.82  291.64  291.45  291.28  291.17
  19   297.27  297.18  296.98  296.67  296.26  295.72  295.04  294.20  293.34  292.70  292.29  292.06  291.95  291.89  291.84
       291.79  291.75  291.79  291.90  292.04  292.08  292.02  291.87  291.67  291.47  291.29  291.19
  20   297.31  297.21  297.02  296.74  296.35  295.85  295.25  294.55  293.89  293.43  293.14  292.97  292.87  292.82  292.77
       292.69  292.60  292.52  292.45  292.39  292.30  292.15  291.96  291.74  291.52  291.33  291.22
  21   297.35  297.27  297.09  296.82  296.47  296.03  295.51  294.93  294.40  294.04  293.81  293.66  293.57  293.51  293.46
       293.38  293.27  293.13  292.97  292.77  292.56  292.33  292.08  291.83  291.58  291.38  291.26
  22   297.41  297.33  297.16  296.92  296.60  296.21  295.75  295.25  294.80  294.49  294.28  294.14  294.05  294.00  293.95
       293.87  293.74  293.58  293.37  293.10  292.80  292.51  292.21  291.92  291.66  291.44  291.32
  23   297.46  297.39  297.24  297.01  296.72  296.36  295.96  295.51  295.11  294.82  294.63  294.49  294.40  294.35  294.30
       294.21  294.09  293.91  293.67  293.35  293.01  292.66  292.33  292.01  291.73  291.50  291.37
  24   297.51  297.44  297.30  297.09  296.82  296.50  296.12  295.71  295.33  295.06  294.87  294.74  294.65  294.60  294.55
       294.46  294.33  294.15  293.90  293.55  293.17  292.79  292.43  292.09  291.79  291.56  291.42
  25   297.56  297.49  297.36  297.16  296.90  296.59  296.24  295.85  295.49  295.23  295.05  294.91  294.83  294.78  294.72
       294.64  294.51  294.32  294.06  293.70  293.29  292.89  292.51  292.16  291.85  291.60  291.46
  26   297.59  297.52  297.39  297.20  296.96  296.66  296.32  295.95  295.60  295.34  295.16  295.02  294.94  294.89  294.83
       294.75  294.61  294.43  294.16  293.79  293.37  292.96  292.57  292.20  291.88  291.64  291.49
  27   297.60  297.54  297.41  297.23  296.98  296.69  296.36  295.99  295.65  295.39  295.21  295.08  294.99  294.94  294.89
       294.80  294.67  294.48  294.21  293.83  293.41  292.99  292.59  292.23  291.90  291.65  291.51
1
              HEAD IN LAYER  4 AT END OF TIME STEP  1 IN STRESS PERIOD  1
  -----------------------------------------------------------------------

           1       2       3       4       5       6       7       8       9      10      11      12      13      14      15
          16      17      18      19      20      21      22      23      24      25      26      27
 ...........................................................................................................................
   1   297.48  297.41  297.29  297.10  296.86  296.58  296.25  295.88  295.54  295.29  295.11  294.98  294.90  294.85  294.79
       294.71  294.58  294.40  294.14  293.78  293.37  292.98  292.61  292.27  291.99  291.77  291.66
   2   297.46  297.40  297.27  297.08  296.84  296.54  296.20  295.83  295.49  295.24  295.06  294.93  294.84  294.79  294.74
       294.66  294.53  294.35  294.09  293.73  293.33  292.94  292.58  292.25  291.97  291.76  291.64
   3   297.43  297.36  297.23  297.04  296.78  296.47  296.12  295.74  295.38  295.13  294.94  294.81  294.73  294.68  294.63
       294.54  294.41  294.24  293.98  293.63  293.25  292.87  292.52  292.20  291.93  291.72  291.61
   4   297.39  297.32  297.18  296.97  296.70  296.37  296.00  295.59  295.22  294.95  294.77  294.63  294.55  294.50  294.45
       294.36  294.24  294.06  293.82  293.49  293.12  292.77  292.44  292.14  291.87  291.68  291.57
   5   297.34  297.26  297.11  296.89  296.59  296.24  295.83  295.39  294.99  294.70  294.51  294.37  294.29  294.24  294.19
       294.11  293.98  293.81  293.58  293.28  292.96  292.64  292.34  292.05  291.81  291.62  291.52
   6   297.28  297.20  297.04  296.79  296.47  296.08  295.62  295.12  294.67  294.36  294.15  294.01  293.92  293.87  293.82
       293.74  293.62  293.47  293.26  293.01  292.74  292.48  292.21  291.96  291.73  291.56  291.46
   7   297.23  297.14  296.96  296.69  296.34  295.89  295.37  294.78  294.24  293.87  293.64  293.48  293.40  293.34  293.29
       293.21  293.11  292.98  292.84  292.67  292.49  292.30  292.08  291.86  291.66  291.50  291.41
   8   297.18  297.08  296.89  296.60  296.21  295.71  295.09  294.37  293.67  293.18  292.87  292.69  292.59  292.53  292.48
       292.42  292.34  292.29  292.27  292.26  292.22  292.11  291.95  291.77  291.59  291.44  291.36
   9   297.14  297.05  296.85  296.54  296.12  295.57  294.86  293.98  293.01  292.24  291.73  291.44  291.31  291.25  291.20
       291.17  291.20  291.35  291.61  291.87  291.99  291.97  291.86  291.71  291.54  291.41  291.33
  10   297.13  297.03  296.82  296.51  296.07  295.49  294.73  293.72  292.48  291.26  290.27  289.64  289.38  289.30  289.27
       289.37  289.75  290.37  291.07  291.62  291.86  291.89  291.81  291.67  291.52  291.39  291.31
  11   297.12  297.02  296.81  296.49  296.05  295.45  294.67  293.59  292.14  290.45  288.66  287.13  286.39  286.22  286.29
       286.86  288.13  289.56  290.74  291.48  291.79  291.86  291.79  291.66  291.51  291.38  291.30
  12   297.12  297.02  296.81  296.49  296.04  295.44  294.64  293.53  291.97  289.94  287.25  283.94  281.48  280.76  281.38
       283.67  286.72  289.05  290.57  291.42  291.77  291.84  291.78  291.65  291.51  291.38  291.30
  13   297.12  297.02  296.81  296.49  296.04  295.44  294.63  293.51  291.92  289.76  286.60  281.56  275.21  270.92  275.11
       281.29  286.07  288.87  290.52  291.41  291.76  291.84  291.78  291.65  291.51  291.38  291.30
  14   297.12  297.02  296.81  296.49  296.04  295.44  294.63  293.51  291.91  289.73  286.48  280.90  270.97  251.22  270.87
       280.63  285.95  288.84  290.51  291.40  291.76  291.84  291.78  291.65  291.51  291.38  291.30
  15   297.12  297.02  296.81  296.49  296.04  295.44  294.63  293.51  291.92  289.76  286.60  281.56  275.21  270.92  275.11
       281.29  286.07  288.87  290.52  291.41  291.76  291.84  291.78  291.65  291.51  291.38  291.30
  16   297.12  297.02  296.81  296.49  296.04  295.44  294.64  293.53  291.97  289.94  287.25  283.94  281.48  280.76  281.38
       283.67  286.72  289.05  290.57  291.42  291.77  291.84  291.78  291.65  291.51  291.38  291.30
  17   297.12  297.02  296.81  296.49  296.05  295.45  294.67  293.59  292.14  290.45  288.66  287.13  286.39  286.22  286.28
       286.86  288.13  289.56  290.74  291.48  291.79  291.86  291.79  291.66  291.51  291.38  291.30
  18   297.13  297.03  296.82  296.51  296.07  295.49  294.73  293.72  292.48  291.26  290.27  289.64  289.38  289.30  289.27
       289.37  289.75  290.37  291.07  291.62  291.86  291.89  291.81  291.67  291.52  291.39  291.31
  19   297.14  297.05  296.85  296.54  296.12  295.57  294.86  293.98  293.01  292.24  291.73  291.44  291.31  291.25  291.20
       291.17  291.20  291.35  291.61  291.87  291.99  291.97  291.86  291.71  291.54  291.41  291.33
  20   297.18  297.08  296.89  296.60  296.21  295.71  295.09  294.37  293.67  293.18  292.87  292.69  292.59  292.53  292.48
       292.42  292.34  292.29  292.27  292.26  292.22  292.11  291.95  291.77  291.59  291.44  291.36
  21   297.23  297.14  296.96  296.69  296.34  295.89  295.37  294.78  294.24  293.87  293.64  293.48  293.39  293.34  293.29
       293.21  293.11  292.98  292.84  292.67  292.49  292.30  292.08  291.86  291.66  291.50  291.41
  22   297.28  297.20  297.04  296.79  296.47  296.08  295.62  295.12  294.67  294.36  294.15  294.01  293.92  293.87  293.82
       293.74  293.62  293.47  293.26  293.01  292.74  292.48  292.21  291.96  291.73  291.56  291.46
  23   297.34  297.26  297.11  296.89  296.59  296.24  295.83  295.39  294.99  294.70  294.51  294.37  294.29  294.24  294.19
       294.11  293.98  293.81  293.58  293.28  292.96  292.64  292.34  292.05  291.81  291.62  291.52
  24   297.39  297.32  297.18  296.97  296.70  296.37  296.00  295.59  295.22  294.95  294.77  294.63  294.55  294.50  294.45
       294.36  294.24  294.06  293.82  293.49  293.12  292.77  292.44  292.14  291.87  291.68  291.57
  25   297.43  297.36  297.23  297.04  296.78  296.47  296.12  295.74  295.38  295.13  294.94  294.81  294.73  294.68  294.63
       294.54  294.41  294.24  293.98  293.63  293.25  292.87  292.52  292.20  291.93  291.72  291.61
  26   297.46  297.40  297.27  297.08  296.84  296.54  296.20  295.83  295.49  295.24  295.06  294.93  294.84  294.79  294.74
       294.66  294.53  294.35  294.09  293.73  293.33  292.94  292.58  292.25  291.97  291.76  291.64
  27   297.48  297.41  297.29  297.10  296.86  296.58  296.24  295.88  295.54  295.29  295.11  294.98  294.90  294.85  294.79
       294.71  294.58  294.40  294.14  293.78  293.37  292.98  292.61  292.27  291.99  291.77  291.66
1
              HEAD IN LAYER  5 AT END OF TIME STEP  1 IN STRESS PERIOD  1
  -----------------------------------------------------------------------

           1       2       3       4       5       6       7       8       9      10      11      12      13      14      15
          16      17      18      19      20      21      22      23      24      25      26      27
 ...........................................................................................................................
   1   297.42  297.35  297.23  297.04  296.80  296.52  296.19  295.83  295.49  295.24  295.06  294.93  294.85  294.80  294.75
       294.67  294.54  294.36  294.10  293.75  293.35  292.97  292.61  292.29  292.03  291.83  291.73
   2   297.40  297.34  297.21  297.02  296.78  296.48  296.15  295.78  295.44  295.18  295.01  294.88  294.80  294.74  294.69
       294.61  294.48  294.30  294.05  293.70  293.31  292.93  292.58  292.27  292.01  291.81  291.71
   3   297.37  297.30  297.17  296.97  296.72  296.41  296.06  295.68  295.33  295.07  294.89  294.76  294.68  294.63  294.58
       294.50  294.37  294.19  293.94  293.60  293.23  292.87  292.53  292.22  291.97  291.78  291.68
   4   297.33  297.26  297.12  296.91  296.64  296.31  295.94  295.53  295.16  294.90  294.71  294.58  294.50  294.45  294.40
       294.32  294.19  294.02  293.78  293.45  293.10  292.76  292.45  292.16  291.91  291.73  291.64
   5   297.28  297.20  297.05  296.82  296.53  296.18  295.77  295.32  294.92  294.64  294.45  294.32  294.23  294.18  294.13
       294.05  293.93  293.76  293.54  293.25  292.93  292.63  292.34  292.07  291.85  291.68  291.59
   6   297.22  297.14  296.97  296.73  296.41  296.01  295.55  295.05  294.60  294.29  294.08  293.94  293.86  293.80  293.75
       293.67  293.56  293.41  293.21  292.97  292.72  292.46  292.22  291.98  291.77  291.62  291.53
   7   297.16  297.07  296.90  296.63  296.27  295.83  295.30  294.70  294.16  293.79  293.55  293.40  293.32  293.26  293.21
       293.14  293.03  292.91  292.77  292.62  292.46  292.28  292.08  291.88  291.70  291.55  291.47
   8   297.11  297.02  296.83  296.54  296.14  295.64  295.01  294.28  293.57  293.08  292.78  292.60  292.51  292.45  292.40
       292.34  292.26  292.20  292.19  292.20  292.18  292.09  291.95  291.79  291.63  291.50  291.43
   9   297.08  296.98  296.78  296.47  296.05  295.49  294.78  293.88  292.92  292.20  291.75  291.50  291.38  291.32  291.27
       291.23  291.22  291.32  291.53  291.80  291.94  291.94  291.86  291.72  291.58  291.46  291.39
  10   297.06  296.96  296.76  296.44  296.00  295.41  294.64  293.62  292.43  291.42  290.73  290.35  290.18  290.12  290.08
       290.08  290.21  290.54  291.04  291.54  291.80  291.86  291.81  291.69  291.56  291.44  291.38
  11   297.06  296.95  296.75  296.42  295.98  295.38  294.58  293.49  292.15  290.90  289.95  289.37  289.13  289.06  289.03
       289.11  289.43  290.02  290.76  291.41  291.74  291.83  291.79  291.68  291.55  291.43  291.37
  12   297.05  296.95  296.74  296.42  295.97  295.36  294.55  293.44  292.02  290.64  289.50  288.70  288.34  288.24  288.24
       288.44  288.98  289.76  290.64  291.36  291.71  291.81  291.78  291.67  291.54  291.43  291.37
  13   297.05  296.95  296.74  296.42  295.96  295.36  294.54  293.42  291.99  290.56  289.34  288.43  287.95  287.81  287.85
       288.16  288.82  289.68  290.60  291.34  291.70  291.81  291.77  291.67  291.54  291.43  291.37
  14   297.05  296.95  296.74  296.42  295.96  295.36  294.54  293.42  291.98  290.55  289.31  288.38  287.86  287.66  287.76
       288.11  288.79  289.67  290.59  291.34  291.70  291.81  291.77  291.67  291.54  291.43  291.37
  15   297.05  296.95  296.74  296.42  295.96  295.36  294.54  293.42  291.99  290.56  289.34  288.43  287.95  287.81  287.85
       288.16  288.82  289.68  290.60  291.34  291.70  291.81  291.77  291.67  291.54  291.43  291.37
  16   297.05  296.95  296.74  296.42  295.97  295.36  294.55  293.44  292.02  290.64  289.50  288.70  288.34  288.24  288.24
       288.44  288.98  289.76  290.64  291.36  291.71  291.81  291.78  291.67  291.54  291.43  291.37
  17   297.06  296.95  296.75  296.42  295.98  295.38  294.58  293.49  292.15  290.90  289.95  289.37  289.13  289.06  289.03
       289.11  289.43  290.02  290.76  291.41  291.74  291.83  291.79  291.68  291.55  291.43  291.37
  18   297.06  296.96  296.76  296.44  296.00  295.41  294.64  293.62  292.43  291.42  290.73  290.35  290.18  290.12  290.08
       290.08  290.21  290.54  291.04  291.54  291.80  291.86  291.81  291.69  291.56  291.44  291.38
  19   297.08  296.98  296.78  296.47  296.05  295.49  294.78  293.88  292.92  292.20  291.75  291.50  291.38  291.32  291.27
       291.23  291.22  291.32  291.53  291.80  291.94  291.94  291.86  291.72  291.58  291.46  291.39
  20   297.11  297.02  296.83  296.54  296.14  295.64  295.01  294.28  293.57  293.08  292.78  292.60  292.51  292.45  292.40
       292.34  292.26  292.20  292.19  292.20  292.18  292.09  291.95  291.79  291.63  291.50  291.43
  21   297.16  297.07  296.90  296.63  296.27  295.83  295.30  294.70  294.16  293.79  293.55  293.40  293.32  293.26  293.21
       293.14  293.03  292.91  292.77  292.62  292.46  292.28  292.08  291.88  291.70  291.55  291.47
  22   297.22  297.14  296.97  296.73  296.41  296.01  295.55  295.05  294.60  294.29  294.08  293.94  293.86  293.80  293.75
       293.67  293.56  293.41  293.21  292.97  292.72  292.46  292.22  291.98  291.77  291.62  291.53
  23   297.27  297.20  297.05  296.82  296.53  296.18  295.77  295.32  294.92  294.64  294.45  294.32  294.23  294.18  294.13
       294.05  293.93  293.76  293.54  293.25  292.93  292.63  292.34  292.07  291.85  291.68  291.59
  24   297.33  297.26  297.12  296.91  296.64  296.31  295.94  295.53  295.16  294.90  294.71  294.58  294.50  294.45  294.40
       294.32  294.19  294.02  293.78  293.45  293.10  292.76  292.45  292.16  291.91  291.73  291.64
  25   297.37  297.30  297.17  296.97  296.72  296.41  296.06  295.68  295.33  295.07  294.89  294.76  294.68  294.63  294.58
       294.50  294.37  294.19  293.94  293.60  293.23  292.87  292.53  292.22  291.97  291.78  291.68
  26   297.40  297.34  297.21  297.02  296.78  296.48  296.15  295.78  295.44  295.18  295.01  294.88  294.80  294.74  294.69
       294.61  294.48  294.30  294.05  293.70  293.31  292.93  292.58  292.27  292.01  291.81  291.71
  27   297.42  297.35  297.23  297.04  296.80  296.52  296.19  295.82  295.49  295.24  295.06  294.93  294.85  294.80  294.75
       294.67  294.54  294.36  294.10  293.75  293.35  292.97  292.61  292.29  292.03  291.83  291.73

 HEAD WILL BE SAVED ON UNIT  32 AT END OF TIME STEP  1, STRESS PERIOD  1
1
  VOLUMETRIC BUDGET FOR ENTIRE MODEL AT END OF TIME STEP  1 IN STRESS PERIOD  1
  -----------------------------------------------------------------------------

     CUMULATIVE VOLUMES      L**3       RATES FOR THIS TIME STEP      L**3/T
     ------------------                 ------------------------

           IN:                                      IN:
           ---                                      ---
             STORAGE =          64.7775               STORAGE =       3.5495E-04
       CONSTANT HEAD =           0.0000         CONSTANT HEAD =           0.0000
               WELLS =           0.0000                 WELLS =           0.0000
       RIVER LEAKAGE =           0.0000         RIVER LEAKAGE =           0.0000
            RECHARGE = 53351354400.0000              RECHARGE =      292336.1880

            TOTAL IN = 53351354400.0000              TOTAL IN =      292336.1880

          OUT:                                     OUT:
          ----                                     ----
             STORAGE =         156.2275               STORAGE =       8.5604E-04
       CONSTANT HEAD =           0.0000         CONSTANT HEAD =           0.0000
               WELLS = 14599999500.0000                 WELLS =       80000.0000
       RIVER LEAKAGE = 38744199200.0000         RIVER LEAKAGE =      212296.9840
            RECHARGE =           0.0000              RECHARGE =           0.0000

           TOTAL OUT = 53344198700.0000             TOTAL OUT =      292297.0000

            IN - OUT =     7155712.0000              IN - OUT =          39.1875

 PERCENT DISCREPANCY =           0.01     PERCENT DISCREPANCY =           0.01






          TIME SUMMARY AT END OF TIME STEP  1 IN STRESS PERIOD  1
                    SECONDS     MINUTES      HOURS       DAYS        YEARS
                    -----------------------------------------------------------
   TIME STEP LENGTH 1.57680E+10 2.62800E+08 4.38000E+06 1.82500E+05  499.66    
 STRESS PERIOD TIME 1.57680E+10 2.62800E+08 4.38000E+06 1.82500E+05  499.66    
         TOTAL TIME 1.57680E+10 2.62800E+08 4.38000E+06 1.82500E+05  499.66    
1
1
                            STRESS PERIOD NO.   2, LENGTH =   10950.00    
                            ----------------------------------------------

                              NUMBER OF TIME STEPS =     8

                               MULTIPLIER FOR DELT =     2.000

                            INITIAL TIME STEP SIZE =   42.94118    

 WELL NO.  LAYER   ROW   COL   STRESS RATE   IFACE           
 ------------------------------------------------------------
      1      4     14     14     -0.8000E+05       0.000    
      2      1     14     14     -0.8000E+05       0.000    

     2 WELLS

 REUSING NON-PARAMETER RIVER REACHES FROM LAST STRESS PERIOD

    27 RIVER REACHES

 REUSING RECH FROM LAST STRESS PERIOD
 
 SOLVING FOR HEAD 

    26 ITERATIONS FOR TIME STEP   1 IN STRESS PERIOD  2

 MAXIMUM HEAD CHANGE FOR EACH ITERATION:

    HEAD CHANGE   HEAD CHANGE   HEAD CHANGE   HEAD CHANGE   HEAD CHANGE
  LAYER,ROW,COL LAYER,ROW,COL LAYER,ROW,COL LAYER,ROW,COL LAYER,ROW,COL
 ----------------------------------------------------------------------
     -8.845        -3.725        -4.293        -2.329        0.8757    
  (  1, 14, 14) (  1, 14, 14) (  1, 14, 14) (  1, 14, 14) (  1, 15, 13)
    -0.1743       -0.1134        0.6458E-01    0.4927E-01    0.3261E-01
  (  1, 11, 11) (  1, 11, 11) (  1, 16, 15) (  5, 12, 13) (  5, 23, 12)
     0.7119E-02    0.8375E-02   -0.9375E-02    0.1475E-01   -0.1200E-01
  (  5, 19,  9) (  3, 20,  8) (  5, 19, 20) (  5, 25,  1) (  5,  6, 20)
    -0.7123E-03   -0.1103E-02   -0.2167E-02   -0.4100E-02   -0.2870E-02
  (  5,  9, 10) (  5, 10, 11) (  4, 12, 12) (  5, 12, 12) (  5, 21, 10)
     0.2176E-03    0.2632E-03    0.6267E-03    0.8725E-03    0.6524E-03
  (  5, 18, 18) (  5, 18, 17) (  5, 16, 15) (  4, 17, 13) (  5,  7, 11)
    -0.3179E-04
  (  5,  9, 19)


 OUTPUT CONTROL FOR STRESS PERIOD  2   TIME STEP  1
    PRINT BUDGET
    SAVE HEAD FOR ALL LAYERS
    SAVE BUDGET
 UBDSV1 SAVING "         STORAGE" ON UNIT  34 AT TIME STEP  1, STRESS PERIOD  2
 UBDSV2 SAVING "   CONSTANT HEAD" ON UNIT  34 AT TIME STEP  1, STRESS PERIOD  2
 UBDSV1 SAVING "FLOW RIGHT FACE " ON UNIT  34 AT TIME STEP  1, STRESS PERIOD  2
 UBDSV1 SAVING "FLOW FRONT FACE " ON UNIT  34 AT TIME STEP  1, STRESS PERIOD  2
 UBDSV1 SAVING "FLOW LOWER FACE " ON UNIT  34 AT TIME STEP  1, STRESS PERIOD  2
 UBDSV4 SAVING "           WELLS" ON UNIT  34 AT TIME STEP  1, STRESS PERIOD  2
 UBDSV4 SAVING "   RIVER LEAKAGE" ON UNIT  34 AT TIME STEP  1, STRESS PERIOD  2
 UBDSV3 SAVING "        RECHARGE" ON UNIT  34 AT TIME STEP  1, STRESS PERIOD  2

 HEAD WILL BE SAVED ON UNIT  32 AT END OF TIME STEP  1, STRESS PERIOD  2
1
  VOLUMETRIC BUDGET FOR ENTIRE MODEL AT END OF TIME STEP  1 IN STRESS PERIOD  2
  -----------------------------------------------------------------------------

     CUMULATIVE VOLUMES      L**3       RATES FOR THIS TIME STEP      L**3/T
     ------------------                 ------------------------

           IN:                                      IN:
           ---                                      ---
             STORAGE =     3386084.2500               STORAGE =       78852.5078
       CONSTANT HEAD =           0.0000         CONSTANT HEAD =           0.0000
               WELLS =           0.0000                 WELLS =           0.0000
       RIVER LEAKAGE =           0.0000         RIVER LEAKAGE =           0.0000
            RECHARGE = 53363908600.0000              RECHARGE =      292336.1880

            TOTAL IN = 53367296000.0000              TOTAL IN =      371188.6880

          OUT:                                     OUT:
          ----                                     ----
             STORAGE =         156.2275               STORAGE =           0.0000
       CONSTANT HEAD =           0.0000         CONSTANT HEAD =           0.0000
               WELLS = 14606870500.0000                 WELLS =      160000.0000
       RIVER LEAKAGE = 38753267700.0000         RIVER LEAKAGE =      211189.3910
            RECHARGE =           0.0000              RECHARGE =           0.0000

           TOTAL OUT = 53360140300.0000             TOTAL OUT =      371189.3750

            IN - OUT =     7155712.0000              IN - OUT =          -0.6875

 PERCENT DISCREPANCY =           0.01     PERCENT DISCREPANCY =           0.00






          TIME SUMMARY AT END OF TIME STEP  1 IN STRESS PERIOD  2
                    SECONDS     MINUTES      HOURS       DAYS        YEARS
                    -----------------------------------------------------------
   TIME STEP LENGTH 3.71012E+06  61835.      1030.6      42.941     0.11757    
 STRESS PERIOD TIME 3.71012E+06  61835.      1030.6      42.941     0.11757    
         TOTAL TIME 1.57717E+10 2.62862E+08 4.38103E+06 1.82543E+05  499.78    
1
 
 SOLVING FOR HEAD 
    21 ITERATIONS FOR TIME STEP   2 IN STRESS PERIOD  2

 MAXIMUM HEAD CHANGE FOR EACH ITERATION:

    HEAD CHANGE   HEAD CHANGE   HEAD CHANGE   HEAD CHANGE   HEAD CHANGE
  LAYER,ROW,COL LAYER,ROW,COL LAYER,ROW,COL LAYER,ROW,COL LAYER,ROW,COL
 ----------------------------------------------------------------------
    -0.2015       -0.3867        -1.042        -1.223       -0.3544    
  (  1, 18, 19) (  1, 11, 17) (  1, 14, 14) (  1, 14, 14) (  5,  9, 14)
     0.8444E-01    0.8856E-01    0.1028        0.5483E-01   -0.3574E-01
  (  1, 13, 13) (  1, 14, 14) (  1, 14, 14) (  1, 14, 14) (  1, 13, 13)
     0.7311E-02    0.6144E-02   -0.6883E-02   -0.1094E-01   -0.1412E-01
  (  1, 18, 10) (  1, 17, 10) (  5, 18, 19) (  4, 23, 17) (  5, 17,  8)
    -0.4063E-03   -0.5718E-03   -0.1100E-02   -0.2314E-02   -0.2306E-02
  (  1, 14, 14) (  5,  9, 11) (  4, 11, 11) (  5, 13, 13) (  5, 21, 10)
     0.9446E-04
  (  5, 19, 19)


 OUTPUT CONTROL FOR STRESS PERIOD  2   TIME STEP  2
    PRINT BUDGET
    SAVE HEAD FOR ALL LAYERS
    SAVE BUDGET
 UBDSV1 SAVING "         STORAGE" ON UNIT  34 AT TIME STEP  2, STRESS PERIOD  2
 UBDSV2 SAVING "   CONSTANT HEAD" ON UNIT  34 AT TIME STEP  2, STRESS PERIOD  2
 UBDSV1 SAVING "FLOW RIGHT FACE " ON UNIT  34 AT TIME STEP  2, STRESS PERIOD  2
 UBDSV1 SAVING "FLOW FRONT FACE " ON UNIT  34 AT TIME STEP  2, STRESS PERIOD  2
 UBDSV1 SAVING "FLOW LOWER FACE " ON UNIT  34 AT TIME STEP  2, STRESS PERIOD  2
 UBDSV4 SAVING "           WELLS" ON UNIT  34 AT TIME STEP  2, STRESS PERIOD  2
 UBDSV4 SAVING "   RIVER LEAKAGE" ON UNIT  34 AT TIME STEP  2, STRESS PERIOD  2
 UBDSV3 SAVING "        RECHARGE" ON UNIT  34 AT TIME STEP  2, STRESS PERIOD  2

 HEAD WILL BE SAVED ON UNIT  32 AT END OF TIME STEP  2, STRESS PERIOD  2
1
  VOLUMETRIC BUDGET FOR ENTIRE MODEL AT END OF TIME STEP  2 IN STRESS PERIOD  2
  -----------------------------------------------------------------------------

     CUMULATIVE VOLUMES      L**3       RATES FOR THIS TIME STEP      L**3/T
     ------------------                 ------------------------

           IN:                                      IN:
           ---                                      ---
             STORAGE =     9722248.0000               STORAGE =       73777.2422
       CONSTANT HEAD =           0.0000         CONSTANT HEAD =           0.0000
               WELLS =           0.0000                 WELLS =           0.0000
       RIVER LEAKAGE =           0.0000         RIVER LEAKAGE =           0.0000
            RECHARGE = 53389017100.0000              RECHARGE =      292336.1880

            TOTAL IN = 53398741000.0000              TOTAL IN =      366113.4380

          OUT:                                     OUT:
          ----                                     ----
             STORAGE =         156.2275               STORAGE =           0.0000
       CONSTANT HEAD =           0.0000         CONSTANT HEAD =           0.0000
               WELLS = 14620611600.0000                 WELLS =      160000.0000
       RIVER LEAKAGE = 38770970600.0000         RIVER LEAKAGE =      206120.5160
            RECHARGE =           0.0000              RECHARGE =           0.0000

           TOTAL OUT = 53391581200.0000             TOTAL OUT =      366120.5000

            IN - OUT =     7159808.0000              IN - OUT =          -7.0625

 PERCENT DISCREPANCY =           0.01     PERCENT DISCREPANCY =           0.00






          TIME SUMMARY AT END OF TIME STEP  2 IN STRESS PERIOD  2
                    SECONDS     MINUTES      HOURS       DAYS        YEARS
                    -----------------------------------------------------------
   TIME STEP LENGTH 7.42024E+06 1.23671E+05  2061.2      85.882     0.23513    
 STRESS PERIOD TIME 1.11304E+07 1.85506E+05  3091.8      128.82     0.35270    
         TOTAL TIME 1.57791E+10 2.62986E+08 4.38309E+06 1.82629E+05  500.01    
1
 
 SOLVING FOR HEAD 
    26 ITERATIONS FOR TIME STEP   3 IN STRESS PERIOD  2

 MAXIMUM HEAD CHANGE FOR EACH ITERATION:

    HEAD CHANGE   HEAD CHANGE   HEAD CHANGE   HEAD CHANGE   HEAD CHANGE
  LAYER,ROW,COL LAYER,ROW,COL LAYER,ROW,COL LAYER,ROW,COL LAYER,ROW,COL
 ----------------------------------------------------------------------
    -0.1281       -0.2101       -0.4986       -0.9029       -0.5447    
  (  1, 20, 20) (  1,  9, 20) (  1, 14, 14) (  1, 14, 14) (  1, 14, 14)
     0.6669E-01    0.6497E-01    0.7429E-01   -0.6232E-01   -0.7492E-01
  (  1, 13, 13) (  1, 14, 14) (  1, 14, 14) (  5,  4, 25) (  3, 15, 10)
     0.6838E-02    0.5810E-02   -0.6711E-02   -0.1420E-01   -0.2488E-01
  (  1, 18,  9) (  1, 18,  9) (  5, 18, 20) (  3, 23, 16) (  5, 12, 10)
    -0.1374E-02   -0.5214E-03   -0.1101E-02   -0.3049E-02   -0.3931E-02
  (  1, 14, 14) (  1, 10, 13) (  5, 27,  1) (  5, 13, 14) (  5, 20, 10)
    -0.2163E-03   -0.1187E-03   -0.3200E-03   -0.4451E-03   -0.5972E-03
  (  1, 14, 14) (  4, 27, 22) (  5, 27, 27) (  4, 26, 27) (  5,  5, 25)
    -0.3319E-04
  (  1, 14, 14)


 OUTPUT CONTROL FOR STRESS PERIOD  2   TIME STEP  3
    PRINT BUDGET
    SAVE HEAD FOR ALL LAYERS
    SAVE BUDGET
 UBDSV1 SAVING "         STORAGE" ON UNIT  34 AT TIME STEP  3, STRESS PERIOD  2
 UBDSV2 SAVING "   CONSTANT HEAD" ON UNIT  34 AT TIME STEP  3, STRESS PERIOD  2
 UBDSV1 SAVING "FLOW RIGHT FACE " ON UNIT  34 AT TIME STEP  3, STRESS PERIOD  2
 UBDSV1 SAVING "FLOW FRONT FACE " ON UNIT  34 AT TIME STEP  3, STRESS PERIOD  2
 UBDSV1 SAVING "FLOW LOWER FACE " ON UNIT  34 AT TIME STEP  3, STRESS PERIOD  2
 UBDSV4 SAVING "           WELLS" ON UNIT  34 AT TIME STEP  3, STRESS PERIOD  2
 UBDSV4 SAVING "   RIVER LEAKAGE" ON UNIT  34 AT TIME STEP  3, STRESS PERIOD  2
 UBDSV3 SAVING "        RECHARGE" ON UNIT  34 AT TIME STEP  3, STRESS PERIOD  2

 HEAD WILL BE SAVED ON UNIT  32 AT END OF TIME STEP  3, STRESS PERIOD  2
1
  VOLUMETRIC BUDGET FOR ENTIRE MODEL AT END OF TIME STEP  3 IN STRESS PERIOD  2
  -----------------------------------------------------------------------------

     CUMULATIVE VOLUMES      L**3       RATES FOR THIS TIME STEP      L**3/T
     ------------------                 ------------------------

           IN:                                      IN:
           ---                                      ---
             STORAGE =    20497662.0000               STORAGE =       62733.5742
       CONSTANT HEAD =           0.0000         CONSTANT HEAD =           0.0000
               WELLS =           0.0000                 WELLS =           0.0000
       RIVER LEAKAGE =           0.0000         RIVER LEAKAGE =           0.0000
            RECHARGE = 53439230000.0000              RECHARGE =      292336.1880

            TOTAL IN = 53459726300.0000              TOTAL IN =      355069.7500

          OUT:                                     OUT:
          ----                                     ----
             STORAGE =         156.2275               STORAGE =           0.0000
       CONSTANT HEAD =           0.0000         CONSTANT HEAD =           0.0000
               WELLS = 14648093700.0000                 WELLS =      160000.0000
       RIVER LEAKAGE = 38804475900.0000         RIVER LEAKAGE =      195076.7190
            RECHARGE =           0.0000              RECHARGE =           0.0000

           TOTAL OUT = 53452570600.0000             TOTAL OUT =      355076.7190

            IN - OUT =     7155712.0000              IN - OUT =          -6.9688

 PERCENT DISCREPANCY =           0.01     PERCENT DISCREPANCY =           0.00






          TIME SUMMARY AT END OF TIME STEP  3 IN STRESS PERIOD  2
                    SECONDS     MINUTES      HOURS       DAYS        YEARS
                    -----------------------------------------------------------
   TIME STEP LENGTH 1.48405E+07 2.47341E+05  4122.4      171.76     0.47027    
 STRESS PERIOD TIME 2.59708E+07 4.32847E+05  7214.1      300.59     0.82297    
         TOTAL TIME 1.57940E+10 2.63233E+08 4.38721E+06 1.82801E+05  500.48    
1
 
 SOLVING FOR HEAD 
    27 ITERATIONS FOR TIME STEP   4 IN STRESS PERIOD  2

 MAXIMUM HEAD CHANGE FOR EACH ITERATION:

    HEAD CHANGE   HEAD CHANGE   HEAD CHANGE   HEAD CHANGE   HEAD CHANGE
  LAYER,ROW,COL LAYER,ROW,COL LAYER,ROW,COL LAYER,ROW,COL LAYER,ROW,COL
 ----------------------------------------------------------------------
    -0.8385E-01   -0.1866       -0.3796       -0.7932       -0.7920    
  (  1,  1,  1) (  1, 27,  1) (  1,  1,  1) (  1, 14, 14) (  1, 14, 14)
    -0.1258        0.4983E-01    0.3378E-01   -0.8576E-01   -0.1461    
  (  1, 14, 14) (  1, 11, 11) (  1, 14, 14) (  5,  3, 15) (  4, 15, 10)
    -0.1473E-01    0.5161E-02   -0.1185E-01   -0.2352E-01   -0.5297E-01
  (  1, 14, 14) (  1, 17,  9) (  5, 27, 27) (  3, 15, 25) (  5,  6, 20)
    -0.4804E-02   -0.1586E-02   -0.2154E-02   -0.5888E-02   -0.8487E-02
  (  1, 14, 14) (  1, 14, 14) (  1, 14, 14) (  5, 13, 13) (  4, 19, 10)
    -0.7576E-03   -0.2595E-03   -0.7775E-03   -0.1143E-02   -0.2079E-02
  (  1, 14, 14) (  4,  1, 27) (  5, 27, 27) (  4, 25, 27) (  5,  6, 24)
    -0.1792E-03   -0.9240E-04
  (  1, 14, 14) (  1, 14, 14)


 OUTPUT CONTROL FOR STRESS PERIOD  2   TIME STEP  4
    PRINT BUDGET
    SAVE HEAD FOR ALL LAYERS
    SAVE BUDGET
 UBDSV1 SAVING "         STORAGE" ON UNIT  34 AT TIME STEP  4, STRESS PERIOD  2
 UBDSV2 SAVING "   CONSTANT HEAD" ON UNIT  34 AT TIME STEP  4, STRESS PERIOD  2
 UBDSV1 SAVING "FLOW RIGHT FACE " ON UNIT  34 AT TIME STEP  4, STRESS PERIOD  2
 UBDSV1 SAVING "FLOW FRONT FACE " ON UNIT  34 AT TIME STEP  4, STRESS PERIOD  2
 UBDSV1 SAVING "FLOW LOWER FACE " ON UNIT  34 AT TIME STEP  4, STRESS PERIOD  2
 UBDSV4 SAVING "           WELLS" ON UNIT  34 AT TIME STEP  4, STRESS PERIOD  2
 UBDSV4 SAVING "   RIVER LEAKAGE" ON UNIT  34 AT TIME STEP  4, STRESS PERIOD  2
 UBDSV3 SAVING "        RECHARGE" ON UNIT  34 AT TIME STEP  4, STRESS PERIOD  2

 HEAD WILL BE SAVED ON UNIT  32 AT END OF TIME STEP  4, STRESS PERIOD  2
1
  VOLUMETRIC BUDGET FOR ENTIRE MODEL AT END OF TIME STEP  4 IN STRESS PERIOD  2
  -----------------------------------------------------------------------------

     CUMULATIVE VOLUMES      L**3       RATES FOR THIS TIME STEP      L**3/T
     ------------------                 ------------------------

           IN:                                      IN:
           ---                                      ---
             STORAGE =    36551916.0000               STORAGE =       46733.2734
       CONSTANT HEAD =           0.0000         CONSTANT HEAD =           0.0000
               WELLS =           0.0000                 WELLS =           0.0000
       RIVER LEAKAGE =           0.0000         RIVER LEAKAGE =           0.0000
            RECHARGE = 53539655700.0000              RECHARGE =      292336.1880

            TOTAL IN = 53576208400.0000              TOTAL IN =      339069.4690

          OUT:                                     OUT:
          ----                                     ----
             STORAGE =         156.2275               STORAGE =           0.0000
       CONSTANT HEAD =           0.0000         CONSTANT HEAD =           0.0000
               WELLS = 14703057900.0000                 WELLS =      160000.0000
       RIVER LEAKAGE = 38865997800.0000         RIVER LEAKAGE =      179084.9060
            RECHARGE =           0.0000              RECHARGE =           0.0000

           TOTAL OUT = 53569056800.0000             TOTAL OUT =      339084.9060

            IN - OUT =     7151616.0000              IN - OUT =         -15.4375

 PERCENT DISCREPANCY =           0.01     PERCENT DISCREPANCY =           0.00






          TIME SUMMARY AT END OF TIME STEP  4 IN STRESS PERIOD  2
                    SECONDS     MINUTES      HOURS       DAYS        YEARS
                    -----------------------------------------------------------
   TIME STEP LENGTH 2.96809E+07 4.94682E+05  8244.7      343.53     0.94053    
 STRESS PERIOD TIME 5.56518E+07 9.27530E+05  15459.      644.12      1.7635    
         TOTAL TIME 1.58237E+10 2.63728E+08 4.39546E+06 1.83144E+05  501.42    
1
 
 SOLVING FOR HEAD 
    32 ITERATIONS FOR TIME STEP   5 IN STRESS PERIOD  2

 MAXIMUM HEAD CHANGE FOR EACH ITERATION:

    HEAD CHANGE   HEAD CHANGE   HEAD CHANGE   HEAD CHANGE   HEAD CHANGE
  LAYER,ROW,COL LAYER,ROW,COL LAYER,ROW,COL LAYER,ROW,COL LAYER,ROW,COL
 ----------------------------------------------------------------------
    -0.8567E-01   -0.1898       -0.4109       -0.6935        -1.001    
  (  1,  1,  1) (  1, 27,  1) (  1,  1,  1) (  1, 14, 14) (  1, 14, 14)
    -0.1843        0.3892E-01   -0.3653E-01   -0.1044       -0.2100    
  (  1, 14, 14) (  1, 11, 11) (  2,  1, 13) (  5,  3, 12) (  5, 18,  1)
    -0.2663E-01   -0.8882E-02   -0.1886E-01   -0.3622E-01   -0.9853E-01
  (  1, 14, 14) (  1, 14, 14) (  5, 27, 27) (  3, 15, 26) (  5,  6, 22)
    -0.1298E-01   -0.4256E-02   -0.4857E-02   -0.9274E-02   -0.1479E-01
  (  1, 14, 14) (  1, 14, 14) (  1, 14, 14) (  5, 13, 12) (  5, 20,  1)
    -0.1713E-02   -0.5089E-03   -0.1444E-02   -0.2170E-02   -0.5178E-02
  (  1, 14, 14) (  1, 14, 14) (  5, 27, 27) (  4, 25, 27) (  5,  6, 24)
    -0.6424E-03   -0.2854E-03   -0.3361E-03   -0.6491E-03   -0.1016E-02
  (  1, 14, 14) (  1, 14, 14) (  1, 14, 14) (  5, 14, 13) (  5, 20,  1)
    -0.1228E-03   -0.3761E-04
  (  1, 14, 14) (  1, 14, 14)


 OUTPUT CONTROL FOR STRESS PERIOD  2   TIME STEP  5
    PRINT BUDGET
    SAVE HEAD FOR ALL LAYERS
    SAVE BUDGET
 UBDSV1 SAVING "         STORAGE" ON UNIT  34 AT TIME STEP  5, STRESS PERIOD  2
 UBDSV2 SAVING "   CONSTANT HEAD" ON UNIT  34 AT TIME STEP  5, STRESS PERIOD  2
 UBDSV1 SAVING "FLOW RIGHT FACE " ON UNIT  34 AT TIME STEP  5, STRESS PERIOD  2
 UBDSV1 SAVING "FLOW FRONT FACE " ON UNIT  34 AT TIME STEP  5, STRESS PERIOD  2
 UBDSV1 SAVING "FLOW LOWER FACE " ON UNIT  34 AT TIME STEP  5, STRESS PERIOD  2
 UBDSV4 SAVING "           WELLS" ON UNIT  34 AT TIME STEP  5, STRESS PERIOD  2
 UBDSV4 SAVING "   RIVER LEAKAGE" ON UNIT  34 AT TIME STEP  5, STRESS PERIOD  2
 UBDSV3 SAVING "        RECHARGE" ON UNIT  34 AT TIME STEP  5, STRESS PERIOD  2

 HEAD WILL BE SAVED ON UNIT  32 AT END OF TIME STEP  5, STRESS PERIOD  2
1
  VOLUMETRIC BUDGET FOR ENTIRE MODEL AT END OF TIME STEP  5 IN STRESS PERIOD  2
  -----------------------------------------------------------------------------

     CUMULATIVE VOLUMES      L**3       RATES FOR THIS TIME STEP      L**3/T
     ------------------                 ------------------------

           IN:                                      IN:
           ---                                      ---
             STORAGE =    56156416.0000               STORAGE =       28533.9473
       CONSTANT HEAD =           0.0000         CONSTANT HEAD =           0.0000
               WELLS =           0.0000                 WELLS =           0.0000
       RIVER LEAKAGE =           0.0000         RIVER LEAKAGE =           0.0000
            RECHARGE = 53740507100.0000              RECHARGE =      292336.1880

            TOTAL IN = 53796663300.0000              TOTAL IN =      320870.1250

          OUT:                                     OUT:
          ----                                     ----
             STORAGE =         156.2275               STORAGE =           0.0000
       CONSTANT HEAD =           0.0000         CONSTANT HEAD =           0.0000
               WELLS = 14812987400.0000                 WELLS =      160000.0000
       RIVER LEAKAGE = 38976532500.0000         RIVER LEAKAGE =      160880.2030
            RECHARGE =           0.0000              RECHARGE =           0.0000

           TOTAL OUT = 53789519900.0000             TOTAL OUT =      320880.1880

            IN - OUT =     7143424.0000              IN - OUT =         -10.0625

 PERCENT DISCREPANCY =           0.01     PERCENT DISCREPANCY =           0.00






          TIME SUMMARY AT END OF TIME STEP  5 IN STRESS PERIOD  2
                    SECONDS     MINUTES      HOURS       DAYS        YEARS
                    -----------------------------------------------------------
   TIME STEP LENGTH 5.93619E+07 9.89365E+05  16489.      687.06      1.8811    
 STRESS PERIOD TIME 1.15014E+08 1.91689E+06  31948.      1331.2      3.6446    
         TOTAL TIME 1.58830E+10 2.64717E+08 4.41195E+06 1.83831E+05  503.30    
1
 
 SOLVING FOR HEAD 
    32 ITERATIONS FOR TIME STEP   6 IN STRESS PERIOD  2

 MAXIMUM HEAD CHANGE FOR EACH ITERATION:

    HEAD CHANGE   HEAD CHANGE   HEAD CHANGE   HEAD CHANGE   HEAD CHANGE
  LAYER,ROW,COL LAYER,ROW,COL LAYER,ROW,COL LAYER,ROW,COL LAYER,ROW,COL
 ----------------------------------------------------------------------
    -0.5942E-01   -0.1329       -0.3028       -0.4925       -0.9389    
  (  1,  1,  1) (  1, 27,  1) (  1,  1,  1) (  1, 14, 14) (  1, 14, 14)
    -0.1920        0.4382E-01    0.3755E-01   -0.9526E-01   -0.2041    
  (  1, 14, 14) (  1, 24, 24) (  1, 25, 23) (  5,  2,  2) (  4, 18,  1)
    -0.2849E-01   -0.1103E-01   -0.1845E-01   -0.3541E-01   -0.1207    
  (  1, 14, 14) (  1, 14, 14) (  5,  3, 27) (  3, 15, 26) (  5,  7, 23)
    -0.2081E-01   -0.6815E-02   -0.7041E-02   -0.9767E-02   -0.1749E-01
  (  1, 14, 14) (  1, 14, 14) (  1, 14, 14) (  5, 12,  3) (  4, 18,  1)
    -0.2084E-02   -0.9879E-03   -0.1609E-02   -0.2475E-02   -0.7787E-02
  (  1, 14, 14) (  1, 14, 14) (  5, 27, 27) (  4, 17, 27) (  5,  7, 24)
    -0.1290E-02   -0.4981E-03   -0.5288E-03   -0.7730E-03   -0.1423E-02
  (  1, 14, 14) (  1, 14, 14) (  1, 14, 14) (  5, 14, 11) (  5, 19,  1)
    -0.1876E-03   -0.8082E-04
  (  1, 14, 14) (  1, 14, 14)


 OUTPUT CONTROL FOR STRESS PERIOD  2   TIME STEP  6
    PRINT BUDGET
    SAVE HEAD FOR ALL LAYERS
    SAVE BUDGET
 UBDSV1 SAVING "         STORAGE" ON UNIT  34 AT TIME STEP  6, STRESS PERIOD  2
 UBDSV2 SAVING "   CONSTANT HEAD" ON UNIT  34 AT TIME STEP  6, STRESS PERIOD  2
 UBDSV1 SAVING "FLOW RIGHT FACE " ON UNIT  34 AT TIME STEP  6, STRESS PERIOD  2
 UBDSV1 SAVING "FLOW FRONT FACE " ON UNIT  34 AT TIME STEP  6, STRESS PERIOD  2
 UBDSV1 SAVING "FLOW LOWER FACE " ON UNIT  34 AT TIME STEP  6, STRESS PERIOD  2
 UBDSV4 SAVING "           WELLS" ON UNIT  34 AT TIME STEP  6, STRESS PERIOD  2
 UBDSV4 SAVING "   RIVER LEAKAGE" ON UNIT  34 AT TIME STEP  6, STRESS PERIOD  2
 UBDSV3 SAVING "        RECHARGE" ON UNIT  34 AT TIME STEP  6, STRESS PERIOD  2

 HEAD WILL BE SAVED ON UNIT  32 AT END OF TIME STEP  6, STRESS PERIOD  2
1
  VOLUMETRIC BUDGET FOR ENTIRE MODEL AT END OF TIME STEP  6 IN STRESS PERIOD  2
  -----------------------------------------------------------------------------

     CUMULATIVE VOLUMES      L**3       RATES FOR THIS TIME STEP      L**3/T
     ------------------                 ------------------------

           IN:                                      IN:
           ---                                      ---
             STORAGE =    73764216.0000               STORAGE =       12813.8926
       CONSTANT HEAD =           0.0000         CONSTANT HEAD =           0.0000
               WELLS =           0.0000                 WELLS =           0.0000
       RIVER LEAKAGE =           0.0000         RIVER LEAKAGE =           0.0000
            RECHARGE = 54142210000.0000              RECHARGE =      292336.1880

            TOTAL IN = 54215974900.0000              TOTAL IN =      305150.0940

          OUT:                                     OUT:
          ----                                     ----
             STORAGE =         156.2275               STORAGE =           0.0000
       CONSTANT HEAD =           0.0000         CONSTANT HEAD =           0.0000
               WELLS = 15032846300.0000                 WELLS =      160000.0000
       RIVER LEAKAGE = 39176007700.0000         RIVER LEAKAGE =      145166.0630
            RECHARGE =           0.0000              RECHARGE =           0.0000

           TOTAL OUT = 54208856100.0000             TOTAL OUT =      305166.0630

            IN - OUT =     7118848.0000              IN - OUT =         -15.9688

 PERCENT DISCREPANCY =           0.01     PERCENT DISCREPANCY =          -0.01






          TIME SUMMARY AT END OF TIME STEP  6 IN STRESS PERIOD  2
                    SECONDS     MINUTES      HOURS       DAYS        YEARS
                    -----------------------------------------------------------
   TIME STEP LENGTH 1.18724E+08 1.97873E+06  32979.      1374.1      3.7621    
 STRESS PERIOD TIME 2.33737E+08 3.89562E+06  64927.      2705.3      7.4067    
         TOTAL TIME 1.60017E+10 2.66696E+08 4.44493E+06 1.85205E+05  507.06    
1
 
 SOLVING FOR HEAD 
    32 ITERATIONS FOR TIME STEP   7 IN STRESS PERIOD  2

 MAXIMUM HEAD CHANGE FOR EACH ITERATION:

    HEAD CHANGE   HEAD CHANGE   HEAD CHANGE   HEAD CHANGE   HEAD CHANGE
  LAYER,ROW,COL LAYER,ROW,COL LAYER,ROW,COL LAYER,ROW,COL LAYER,ROW,COL
 ----------------------------------------------------------------------
    -0.2813E-01   -0.6342E-01   -0.1492       -0.2493       -0.5679    
  (  1,  1,  1) (  1, 27,  1) (  1,  1,  1) (  1, 17,  1) (  1, 14, 14)
    -0.1250        0.3300E-01    0.3041E-01   -0.5526E-01   -0.1208    
  (  1, 14, 14) (  1, 26, 25) (  1, 25, 23) (  5,  2,  1) (  4, 17,  1)
    -0.1732E-01   -0.7554E-02   -0.1095E-01   -0.2080E-01   -0.8580E-01
  (  1, 14, 14) (  1, 14, 14) (  5,  3, 27) (  3, 15, 26) (  5,  7, 23)
    -0.1742E-01   -0.5745E-02   -0.5663E-02   -0.6802E-02   -0.1193E-01
  (  1, 14, 14) (  1, 14, 14) (  1, 14, 14) (  5, 13,  2) (  4, 18,  1)
    -0.1303E-02   -0.9066E-03   -0.1001E-02   -0.1824E-02   -0.6306E-02
  (  1, 14, 14) (  1, 18, 10) (  5, 27, 27) (  3, 24,  1) (  5,  1,  1)
    -0.1251E-02   -0.4452E-03   -0.4390E-03   -0.5816E-03   -0.1058E-02
  (  1, 14, 14) (  1, 14, 14) (  1, 14, 14) (  5, 19,  4) (  4, 18,  1)
    -0.1349E-03   -0.7870E-04
  (  1, 14, 14) (  1, 14, 14)


 OUTPUT CONTROL FOR STRESS PERIOD  2   TIME STEP  7
    PRINT BUDGET
    SAVE HEAD FOR ALL LAYERS
    SAVE BUDGET
 UBDSV1 SAVING "         STORAGE" ON UNIT  34 AT TIME STEP  7, STRESS PERIOD  2
 UBDSV2 SAVING "   CONSTANT HEAD" ON UNIT  34 AT TIME STEP  7, STRESS PERIOD  2
 UBDSV1 SAVING "FLOW RIGHT FACE " ON UNIT  34 AT TIME STEP  7, STRESS PERIOD  2
 UBDSV1 SAVING "FLOW FRONT FACE " ON UNIT  34 AT TIME STEP  7, STRESS PERIOD  2
 UBDSV1 SAVING "FLOW LOWER FACE " ON UNIT  34 AT TIME STEP  7, STRESS PERIOD  2
 UBDSV4 SAVING "           WELLS" ON UNIT  34 AT TIME STEP  7, STRESS PERIOD  2
 UBDSV4 SAVING "   RIVER LEAKAGE" ON UNIT  34 AT TIME STEP  7, STRESS PERIOD  2
 UBDSV3 SAVING "        RECHARGE" ON UNIT  34 AT TIME STEP  7, STRESS PERIOD  2

 HEAD WILL BE SAVED ON UNIT  32 AT END OF TIME STEP  7, STRESS PERIOD  2
1
  VOLUMETRIC BUDGET FOR ENTIRE MODEL AT END OF TIME STEP  7 IN STRESS PERIOD  2
  -----------------------------------------------------------------------------

     CUMULATIVE VOLUMES      L**3       RATES FOR THIS TIME STEP      L**3/T
     ------------------                 ------------------------

           IN:                                      IN:
           ---                                      ---
             STORAGE =    84097528.0000               STORAGE =        3759.9807
       CONSTANT HEAD =           0.0000         CONSTANT HEAD =           0.0000
               WELLS =           0.0000                 WELLS =           0.0000
       RIVER LEAKAGE =           0.0000         RIVER LEAKAGE =           0.0000
            RECHARGE = 54945620000.0000              RECHARGE =      292336.1880

            TOTAL IN = 55029719000.0000              TOTAL IN =      296096.1560

          OUT:                                     OUT:
          ----                                     ----
             STORAGE =         156.2275               STORAGE =           0.0000
       CONSTANT HEAD =           0.0000         CONSTANT HEAD =           0.0000
               WELLS = 15472564200.0000                 WELLS =      160000.0000
       RIVER LEAKAGE = 39550066700.0000         RIVER LEAKAGE =      136108.2810
            RECHARGE =           0.0000              RECHARGE =           0.0000

           TOTAL OUT = 55022633000.0000             TOTAL OUT =      296108.2810

            IN - OUT =     7086080.0000              IN - OUT =         -12.1250

 PERCENT DISCREPANCY =           0.01     PERCENT DISCREPANCY =           0.00






          TIME SUMMARY AT END OF TIME STEP  7 IN STRESS PERIOD  2
                    SECONDS     MINUTES      HOURS       DAYS        YEARS
                    -----------------------------------------------------------
   TIME STEP LENGTH 2.37448E+08 3.95746E+06  65958.      2748.2      7.5243    
 STRESS PERIOD TIME 4.71185E+08 7.85308E+06 1.30885E+05  5453.5      14.931    
         TOTAL TIME 1.62392E+10 2.70653E+08 4.51089E+06 1.87954E+05  514.59    
1
 
 SOLVING FOR HEAD 
    31 ITERATIONS FOR TIME STEP   8 IN STRESS PERIOD  2

 MAXIMUM HEAD CHANGE FOR EACH ITERATION:

    HEAD CHANGE   HEAD CHANGE   HEAD CHANGE   HEAD CHANGE   HEAD CHANGE
  LAYER,ROW,COL LAYER,ROW,COL LAYER,ROW,COL LAYER,ROW,COL LAYER,ROW,COL
 ----------------------------------------------------------------------
    -0.8437E-02   -0.1914E-01   -0.4583E-01   -0.7859E-01   -0.2001    
  (  1,  1,  1) (  1, 27,  1) (  1,  1,  1) (  1, 18,  1) (  1, 14, 14)
    -0.4584E-01    0.1337E-01    0.1254E-01   -0.1885E-01   -0.4141E-01
  (  1, 14, 14) (  1, 26, 25) (  1, 25, 23) (  5,  2,  1) (  3, 17,  1)
    -0.5859E-02   -0.2781E-02   -0.3744E-02   -0.7215E-02   -0.3312E-01
  (  1, 14, 14) (  1, 14, 14) (  5,  3, 27) (  1, 14, 14) (  5,  7, 22)
    -0.7290E-02   -0.2422E-02    0.2583E-02   -0.2595E-02   -0.4436E-02
  (  1, 14, 14) (  1, 14, 14) (  1, 13, 24) (  5, 13,  2) (  4, 17,  1)
    -0.4240E-03   -0.4246E-03   -0.3614E-03   -0.8094E-03   -0.2683E-02
  (  1, 14, 14) (  1, 18, 10) (  5,  3, 27) (  2, 25,  1) (  5,  1,  1)
    -0.5658E-03   -0.1937E-03    0.1837E-03   -0.2345E-03   -0.4047E-03
  (  1, 14, 14) (  1, 14, 14) (  1, 13, 24) (  5, 20,  4) (  4, 18,  1)
    -0.4627E-04
  (  1, 14, 14)


 OUTPUT CONTROL FOR STRESS PERIOD  2   TIME STEP  8
    PRINT BUDGET
    PRINT HEAD FOR ALL LAYERS
    SAVE HEAD FOR ALL LAYERS
    SAVE BUDGET
 UBDSV1 SAVING "         STORAGE" ON UNIT  34 AT TIME STEP  8, STRESS PERIOD  2
 UBDSV2 SAVING "   CONSTANT HEAD" ON UNIT  34 AT TIME STEP  8, STRESS PERIOD  2
 UBDSV1 SAVING "FLOW RIGHT FACE " ON UNIT  34 AT TIME STEP  8, STRESS PERIOD  2
 UBDSV1 SAVING "FLOW FRONT FACE " ON UNIT  34 AT TIME STEP  8, STRESS PERIOD  2
 UBDSV1 SAVING "FLOW LOWER FACE " ON UNIT  34 AT TIME STEP  8, STRESS PERIOD  2
 UBDSV4 SAVING "           WELLS" ON UNIT  34 AT TIME STEP  8, STRESS PERIOD  2
 UBDSV4 SAVING "   RIVER LEAKAGE" ON UNIT  34 AT TIME STEP  8, STRESS PERIOD  2
 UBDSV3 SAVING "        RECHARGE" ON UNIT  34 AT TIME STEP  8, STRESS PERIOD  2
1
              HEAD IN LAYER  1 AT END OF TIME STEP  8 IN STRESS PERIOD  2
  -----------------------------------------------------------------------

           1       2       3       4       5       6       7       8       9      10      11      12      13      14      15
          16      17      18      19      20      21      22      23      24      25      26      27
 ...........................................................................................................................
   1   295.01  294.95  294.81  294.61  294.34  294.02  293.65  293.24  292.84  292.54  292.32  292.16  292.06  291.99  291.92
       291.81  291.64  291.39  291.02  290.46  289.74  288.92  287.97  286.87  285.56  284.01  282.15
   2   294.99  294.92  294.78  294.57  294.30  293.97  293.60  293.17  292.77  292.46  292.24  292.08  291.98  291.91  291.84
       291.73  291.56  291.31  290.94  290.39  289.68  288.87  287.93  286.84  285.54  284.00  282.14
   3   294.94  294.87  294.72  294.50  294.22  293.87  293.48  293.03  292.62  292.30  292.08  291.92  291.81  291.74  291.68
       291.57  291.40  291.15  290.79  290.25  289.56  288.77  287.85  286.78  285.50  283.97  282.13
   4   294.88  294.80  294.64  294.41  294.10  293.73  293.30  292.82  292.38  292.05  291.82  291.66  291.55  291.48  291.42
       291.31  291.14  290.90  290.55  290.03  289.37  288.62  287.74  286.69  285.43  283.93  282.11
   5   294.80  294.71  294.54  294.28  293.95  293.53  293.05  292.52  292.04  291.69  291.45  291.28  291.17  291.11  291.04
       290.93  290.77  290.54  290.21  289.73  289.13  288.43  287.59  286.58  285.35  283.87  282.08
   6   294.72  294.62  294.43  294.15  293.77  293.30  292.75  292.14  291.59  291.20  290.94  290.76  290.65  290.58  290.52
       290.41  290.25  290.04  289.75  289.34  288.82  288.19  287.41  286.45  285.26  283.82  282.05
   7   294.63  294.53  294.32  294.00  293.58  293.04  292.40  291.67  290.99  290.53  290.23  290.04  289.92  289.85  289.79
       289.68  289.54  289.36  289.14  288.85  288.45  287.92  287.22  286.31  285.17  283.76  282.02
   8   294.56  294.45  294.22  293.87  293.39  292.77  292.01  291.10  290.22  289.61  289.22  288.99  288.86  288.79  288.73
       288.63  288.52  288.42  288.35  288.27  288.05  287.65  287.03  286.19  285.09  283.71  282.00
   9   294.51  294.39  294.15  293.78  293.26  292.57  291.69  290.58  289.39  288.48  287.89  287.56  287.40  287.32  287.26
       287.19  287.18  287.27  287.50  287.73  287.72  287.44  286.90  286.10  285.03  283.67  281.98
  10   294.49  294.36  294.11  293.73  293.19  292.47  291.52  290.25  288.77  287.46  286.50  285.92  285.68  285.58  285.53
       285.55  285.77  286.24  286.86  287.39  287.54  287.33  286.83  286.05  285.00  283.65  281.97
  11   294.48  294.35  294.10  293.71  293.16  292.42  291.43  290.09  288.40  286.72  285.25  284.16  283.66  283.52  283.51
       283.78  284.51  285.49  286.49  287.22  287.45  287.28  286.80  286.03  284.99  283.65  281.97
  12   294.47  294.35  294.09  293.70  293.15  292.40  291.40  290.02  288.23  286.32  284.34  282.36  281.05  280.66  280.90
       281.97  283.58  285.08  286.32  287.15  287.41  287.26  286.79  286.03  284.98  283.64  281.97
  13   294.47  294.35  294.09  293.70  293.14  292.39  291.39  290.00  288.18  286.18  283.95  281.17  278.11  276.10  277.94
       280.77  283.20  284.94  286.26  287.12  287.40  287.26  286.78  286.02  284.98  283.64  281.97
  14   294.47  294.35  294.09  293.70  293.14  292.39  291.39  289.99  288.18  286.16  283.89  280.86  276.18  266.44  276.01
       280.45  283.13  284.92  286.25  287.12  287.40  287.26  286.78  286.02  284.98  283.64  281.97
  15   294.47  294.35  294.09  293.70  293.14  292.39  291.39  290.00  288.18  286.18  283.95  281.17  278.11  276.10  277.94
       280.77  283.20  284.94  286.26  287.12  287.40  287.26  286.78  286.02  284.98  283.64  281.97
  16   294.47  294.35  294.09  293.70  293.15  292.40  291.40  290.02  288.23  286.32  284.34  282.36  281.05  280.66  280.90
       281.97  283.58  285.08  286.32  287.15  287.41  287.26  286.79  286.03  284.98  283.64  281.97
  17   294.48  294.35  294.10  293.71  293.16  292.42  291.43  290.09  288.40  286.72  285.25  284.16  283.66  283.52  283.51
       283.78  284.51  285.49  286.49  287.22  287.45  287.28  286.80  286.03  284.99  283.65  281.97
  18   294.49  294.36  294.11  293.73  293.19  292.47  291.52  290.25  288.77  287.46  286.50  285.92  285.68  285.58  285.53
       285.55  285.77  286.24  286.86  287.39  287.54  287.33  286.83  286.05  285.00  283.65  281.97
  19   294.51  294.39  294.15  293.78  293.26  292.57  291.69  290.58  289.39  288.48  287.89  287.56  287.40  287.32  287.26
       287.19  287.18  287.27  287.50  287.73  287.72  287.44  286.90  286.10  285.03  283.67  281.98
  20   294.56  294.45  294.22  293.87  293.39  292.77  292.01  291.10  290.22  289.61  289.22  288.99  288.86  288.79  288.73
       288.63  288.52  288.42  288.35  288.27  288.05  287.65  287.03  286.19  285.09  283.71  282.00
  21   294.63  294.53  294.32  294.00  293.58  293.04  292.40  291.67  290.99  290.53  290.23  290.04  289.92  289.85  289.79
       289.68  289.54  289.36  289.14  288.85  288.45  287.92  287.22  286.31  285.17  283.76  282.02
  22   294.72  294.62  294.43  294.15  293.77  293.30  292.75  292.14  291.59  291.20  290.94  290.76  290.65  290.58  290.52
       290.41  290.25  290.04  289.75  289.34  288.82  288.19  287.41  286.45  285.26  283.82  282.05
  23   294.80  294.71  294.54  294.28  293.95  293.53  293.05  292.52  292.04  291.69  291.45  291.28  291.17  291.11  291.04
       290.93  290.77  290.54  290.21  289.73  289.13  288.43  287.59  286.58  285.35  283.87  282.08
  24   294.88  294.80  294.64  294.41  294.10  293.73  293.30  292.82  292.38  292.05  291.82  291.66  291.55  291.48  291.42
       291.31  291.14  290.90  290.55  290.03  289.37  288.62  287.74  286.69  285.43  283.93  282.11
  25   294.94  294.87  294.72  294.50  294.22  293.87  293.48  293.03  292.62  292.30  292.08  291.92  291.81  291.74  291.68
       291.57  291.40  291.15  290.79  290.25  289.56  288.77  287.85  286.78  285.50  283.97  282.13
  26   294.99  294.92  294.78  294.57  294.30  293.97  293.60  293.17  292.77  292.46  292.24  292.08  291.98  291.91  291.84
       291.73  291.56  291.31  290.94  290.39  289.68  288.87  287.93  286.84  285.54  284.00  282.14
  27   295.01  294.95  294.81  294.61  294.34  294.02  293.65  293.24  292.84  292.54  292.32  292.16  292.06  291.99  291.92
       291.81  291.64  291.39  291.02  290.46  289.74  288.92  287.97  286.87  285.56  284.01  282.15
1
              HEAD IN LAYER  2 AT END OF TIME STEP  8 IN STRESS PERIOD  2
  -----------------------------------------------------------------------

           1       2       3       4       5       6       7       8       9      10      11      12      13      14      15
          16      17      18      19      20      21      22      23      24      25      26      27
 ...........................................................................................................................
   1   290.34  290.28  290.18  290.02  289.82  289.59  289.32  289.04  288.78  288.60  288.47  288.38  288.32  288.28  288.25
       288.19  288.10  287.97  287.80  287.56  287.30  287.04  286.79  286.55  286.33  286.15  286.02
   2   290.31  290.26  290.15  289.99  289.78  289.54  289.27  288.98  288.72  288.53  288.40  288.31  288.25  288.21  288.18
       288.12  288.03  287.91  287.74  287.50  287.24  287.00  286.75  286.52  286.31  286.12  286.00
   3   290.27  290.21  290.10  289.93  289.71  289.45  289.17  288.86  288.59  288.40  288.26  288.17  288.11  288.07  288.04
       287.98  287.89  287.77  287.61  287.38  287.14  286.91  286.68  286.46  286.26  286.08  285.96
   4   290.21  290.15  290.03  289.84  289.61  289.33  289.01  288.68  288.39  288.18  288.05  287.95  287.89  287.86  287.82
       287.76  287.68  287.56  287.40  287.20  286.99  286.78  286.58  286.38  286.19  286.02  285.91
   5   290.14  290.07  289.94  289.73  289.47  289.16  288.81  288.43  288.11  287.89  287.75  287.65  287.59  287.55  287.51
       287.46  287.38  287.27  287.13  286.96  286.78  286.61  286.45  286.27  286.10  285.95  285.85
   6   290.07  289.99  289.84  289.61  289.32  288.96  288.55  288.12  287.75  287.50  287.34  287.24  287.18  287.14  287.10
       287.05  286.97  286.88  286.76  286.64  286.53  286.42  286.29  286.15  286.01  285.87  285.77
   7   289.99  289.91  289.74  289.49  289.15  288.74  288.26  287.74  287.29  286.99  286.81  286.70  286.64  286.60  286.56
       286.51  286.44  286.37  286.30  286.26  286.24  286.20  286.13  286.03  285.91  285.79  285.70
   8   289.93  289.83  289.65  289.37  289.00  288.53  287.96  287.32  286.74  286.36  286.13  286.00  285.93  285.89  285.86
       285.81  285.76  285.73  285.75  285.84  285.93  285.98  285.97  285.92  285.83  285.72  285.64
   9   289.88  289.79  289.59  289.29  288.89  288.37  287.72  286.95  286.21  285.70  285.40  285.24  285.16  285.12  285.09
       285.05  285.03  285.08  285.22  285.47  285.69  285.82  285.86  285.84  285.77  285.68  285.60
  10   289.86  289.76  289.56  289.25  288.83  288.28  287.59  286.74  285.86  285.24  284.86  284.65  284.56  284.52  284.49
       284.46  284.49  284.61  284.88  285.25  285.56  285.74  285.81  285.80  285.74  285.65  285.58
  11   289.85  289.75  289.55  289.24  288.81  288.24  287.53  286.63  285.69  284.98  284.53  284.29  284.19  284.14  284.11
       284.10  284.16  284.35  284.70  285.15  285.50  285.70  285.78  285.78  285.73  285.64  285.57
  12   289.85  289.75  289.54  289.23  288.80  288.23  287.50  286.59  285.61  284.86  284.38  284.11  283.99  283.94  283.92
       283.92  284.01  284.24  284.63  285.11  285.48  285.69  285.77  285.78  285.72  285.64  285.57
  13   289.85  289.75  289.54  289.23  288.79  288.22  287.50  286.58  285.59  284.83  284.33  284.05  283.92  283.88  283.85
       283.86  283.96  284.20  284.60  285.09  285.47  285.68  285.77  285.77  285.72  285.64  285.57
  14   289.85  289.75  289.54  289.23  288.79  288.22  287.49  286.57  285.59  284.82  284.32  284.04  283.91  283.86  283.84
       283.85  283.95  284.20  284.60  285.09  285.47  285.68  285.77  285.77  285.72  285.64  285.57
  15   289.85  289.75  289.54  289.23  288.79  288.22  287.50  286.58  285.59  284.83  284.33  284.05  283.92  283.88  283.85
       283.86  283.96  284.20  284.60  285.09  285.47  285.68  285.77  285.77  285.72  285.64  285.57
  16   289.85  289.75  289.54  289.23  288.80  288.23  287.50  286.59  285.61  284.86  284.38  284.11  283.99  283.94  283.92
       283.92  284.01  284.24  284.63  285.11  285.48  285.69  285.77  285.78  285.72  285.64  285.57
  17   289.85  289.75  289.55  289.24  288.81  288.24  287.53  286.63  285.69  284.98  284.53  284.29  284.19  284.14  284.11
       284.10  284.16  284.35  284.70  285.15  285.50  285.70  285.78  285.78  285.73  285.64  285.57
  18   289.86  289.76  289.56  289.25  288.83  288.28  287.59  286.74  285.86  285.24  284.86  284.65  284.56  284.52  284.49
       284.46  284.49  284.61  284.88  285.25  285.56  285.74  285.81  285.80  285.74  285.65  285.58
  19   289.88  289.79  289.59  289.29  288.89  288.37  287.72  286.95  286.21  285.70  285.40  285.24  285.16  285.12  285.09
       285.05  285.03  285.08  285.22  285.47  285.69  285.82  285.86  285.84  285.77  285.68  285.60
  20   289.93  289.83  289.65  289.37  289.00  288.53  287.96  287.32  286.74  286.36  286.13  286.00  285.93  285.89  285.86
       285.81  285.76  285.73  285.75  285.84  285.93  285.98  285.97  285.92  285.83  285.72  285.64
  21   289.99  289.91  289.74  289.49  289.15  288.74  288.26  287.74  287.29  286.99  286.81  286.70  286.64  286.60  286.56
       286.51  286.44  286.37  286.30  286.26  286.24  286.20  286.13  286.03  285.91  285.79  285.70
  22   290.07  289.99  289.84  289.61  289.32  288.96  288.55  288.12  287.75  287.50  287.34  287.24  287.18  287.14  287.10
       287.05  286.97  286.88  286.76  286.64  286.53  286.42  286.29  286.15  286.01  285.87  285.77
  23   290.14  290.07  289.94  289.73  289.47  289.16  288.81  288.43  288.11  287.89  287.75  287.65  287.59  287.55  287.51
       287.46  287.38  287.27  287.13  286.96  286.78  286.61  286.45  286.27  286.10  285.95  285.85
  24   290.21  290.15  290.03  289.84  289.61  289.33  289.01  288.68  288.39  288.18  288.05  287.95  287.89  287.86  287.82
       287.76  287.68  287.56  287.40  287.20  286.99  286.78  286.58  286.38  286.19  286.02  285.91
  25   290.27  290.21  290.10  289.93  289.71  289.45  289.17  288.86  288.59  288.40  288.26  288.17  288.11  288.07  288.04
       287.98  287.89  287.77  287.61  287.38  287.14  286.91  286.68  286.46  286.26  286.08  285.96
  26   290.31  290.26  290.15  289.99  289.78  289.54  289.27  288.98  288.72  288.53  288.40  288.31  288.25  288.21  288.18
       288.12  288.03  287.91  287.74  287.50  287.24  287.00  286.75  286.52  286.31  286.12  286.00
  27   290.34  290.28  290.18  290.02  289.82  289.59  289.32  289.04  288.78  288.60  288.47  288.38  288.32  288.28  288.25
       288.19  288.10  287.97  287.80  287.56  287.30  287.04  286.79  286.55  286.33  286.15  286.02
1
              HEAD IN LAYER  3 AT END OF TIME STEP  8 IN STRESS PERIOD  2
  -----------------------------------------------------------------------

           1       2       3       4       5       6       7       8       9      10      11      12      13      14      15
          16      17      18      19      20      21      22      23      24      25      26      27
 ...........................................................................................................................
   1   290.16  290.11  290.00  289.85  289.65  289.42  289.16  288.88  288.63  288.45  288.33  288.24  288.18  288.15  288.11
       288.05  287.97  287.85  287.68  287.46  287.21  286.97  286.75  286.54  286.36  286.22  286.14
   2   290.14  290.08  289.98  289.82  289.62  289.38  289.11  288.82  288.57  288.39  288.26  288.17  288.11  288.08  288.04
       287.99  287.90  287.78  287.62  287.40  287.16  286.93  286.71  286.51  286.34  286.20  286.12
   3   290.10  290.04  289.93  289.76  289.54  289.29  289.01  288.71  288.44  288.25  288.12  288.03  287.97  287.94  287.90
       287.85  287.76  287.65  287.49  287.28  287.05  286.84  286.64  286.46  286.29  286.16  286.08
   4   290.04  289.98  289.85  289.67  289.44  289.16  288.85  288.52  288.24  288.04  287.91  287.81  287.76  287.72  287.69
       287.63  287.55  287.44  287.29  287.10  286.90  286.72  286.54  286.37  286.22  286.10  286.02
   5   289.97  289.90  289.76  289.56  289.31  289.00  288.65  288.28  287.96  287.75  287.60  287.51  287.45  287.41  287.38
       287.33  287.25  287.14  287.01  286.85  286.70  286.55  286.41  286.27  286.13  286.02  285.96
   6   289.89  289.82  289.67  289.44  289.15  288.80  288.39  287.96  287.59  287.35  287.20  287.09  287.03  287.00  286.96
       286.91  286.84  286.75  286.64  286.54  286.44  286.35  286.25  286.15  286.04  285.94  285.88
   7   289.82  289.74  289.57  289.32  288.99  288.58  288.10  287.58  287.13  286.83  286.65  286.54  286.47  286.44  286.40
       286.35  286.29  286.23  286.18  286.16  286.15  286.14  286.09  286.02  285.94  285.86  285.81
   8   289.75  289.66  289.48  289.20  288.83  288.36  287.79  287.14  286.54  286.14  285.91  285.77  285.70  285.66  285.63
       285.59  285.55  285.54  285.59  285.72  285.84  285.92  285.94  285.91  285.86  285.79  285.75
   9   289.71  289.61  289.42  289.13  288.72  288.20  287.55  286.75  285.94  285.35  284.99  284.80  284.71  284.67  284.64
       284.61  284.63  284.75  284.99  285.32  285.60  285.76  285.83  285.83  285.80  285.75  285.71
  10   289.69  289.59  289.39  289.09  288.67  288.11  287.41  286.51  285.51  284.69  284.13  283.83  283.70  283.66  283.63
       283.64  283.77  284.08  284.56  285.08  285.46  285.67  285.77  285.79  285.77  285.72  285.69
  11   289.68  289.58  289.38  289.07  288.64  288.08  287.34  286.39  285.27  284.25  283.47  283.00  282.80  282.75  282.73
       282.81  283.12  283.65  284.32  284.96  285.39  285.63  285.75  285.78  285.76  285.71  285.68
  12   289.68  289.58  289.37  289.06  288.63  288.06  287.32  286.34  285.16  284.03  283.08  282.41  282.10  282.02  282.03
       282.22  282.72  283.42  284.21  284.91  285.37  285.62  285.74  285.77  285.75  285.71  285.68
  13   289.67  289.57  289.37  289.06  288.63  288.06  287.31  286.32  285.13  283.96  282.94  282.16  281.74  281.62  281.67
       281.98  282.59  283.36  284.18  284.90  285.36  285.61  285.73  285.77  285.75  285.71  285.67
  14   289.67  289.57  289.37  289.06  288.63  288.05  287.31  286.32  285.12  283.95  282.92  282.11  281.65  281.48  281.58
       281.93  282.56  283.34  284.17  284.89  285.36  285.61  285.73  285.77  285.75  285.71  285.67
  15   289.67  289.57  289.37  289.06  288.63  288.06  287.31  286.32  285.13  283.96  282.94  282.16  281.74  281.62  281.67
       281.98  282.59  283.36  284.18  284.90  285.36  285.61  285.73  285.77  285.75  285.71  285.67
  16   289.68  289.58  289.37  289.06  288.63  288.06  287.32  286.34  285.16  284.03  283.08  282.41  282.10  282.02  282.03
       282.22  282.72  283.42  284.21  284.91  285.37  285.62  285.74  285.77  285.75  285.71  285.68
  17   289.68  289.58  289.38  289.07  288.64  288.08  287.34  286.39  285.27  284.25  283.47  283.00  282.80  282.75  282.73
       282.81  283.12  283.65  284.32  284.96  285.39  285.63  285.75  285.78  285.76  285.71  285.68
  18   289.69  289.59  289.39  289.09  288.67  288.11  287.41  286.51  285.51  284.69  284.13  283.83  283.70  283.66  283.63
       283.64  283.77  284.08  284.56  285.08  285.46  285.67  285.77  285.79  285.77  285.72  285.69
  19   289.71  289.61  289.42  289.13  288.72  288.20  287.55  286.75  285.94  285.35  284.99  284.80  284.71  284.67  284.64
       284.61  284.63  284.75  284.99  285.32  285.60  285.76  285.83  285.83  285.80  285.75  285.71
  20   289.75  289.66  289.48  289.20  288.83  288.36  287.79  287.14  286.54  286.14  285.91  285.77  285.70  285.66  285.63
       285.59  285.55  285.54  285.59  285.72  285.84  285.92  285.94  285.91  285.86  285.79  285.75
  21   289.82  289.74  289.57  289.32  288.99  288.58  288.10  287.58  287.13  286.83  286.65  286.54  286.47  286.44  286.40
       286.35  286.29  286.23  286.18  286.16  286.15  286.14  286.09  286.02  285.94  285.86  285.81
  22   289.89  289.82  289.67  289.44  289.15  288.80  288.39  287.96  287.59  287.35  287.20  287.09  287.03  287.00  286.96
       286.91  286.84  286.75  286.64  286.54  286.44  286.35  286.25  286.15  286.04  285.94  285.88
  23   289.97  289.90  289.76  289.56  289.31  289.00  288.65  288.28  287.96  287.75  287.60  287.51  287.45  287.41  287.38
       287.33  287.25  287.14  287.01  286.85  286.70  286.55  286.41  286.27  286.13  286.02  285.96
  24   290.04  289.98  289.85  289.67  289.44  289.16  288.85  288.52  288.24  288.04  287.91  287.81  287.76  287.72  287.69
       287.63  287.55  287.44  287.29  287.10  286.90  286.72  286.54  286.37  286.22  286.10  286.02
  25   290.10  290.04  289.93  289.76  289.54  289.29  289.01  288.71  288.44  288.25  288.12  288.03  287.97  287.94  287.90
       287.85  287.76  287.65  287.49  287.28  287.05  286.84  286.64  286.46  286.29  286.16  286.08
  26   290.14  290.08  289.98  289.82  289.62  289.38  289.11  288.82  288.57  288.39  288.26  288.17  288.11  288.08  288.04
       287.99  287.90  287.78  287.62  287.40  287.16  286.93  286.71  286.51  286.34  286.20  286.12
  27   290.16  290.11  290.00  289.85  289.65  289.42  289.16  288.88  288.63  288.45  288.33  288.24  288.18  288.15  288.11
       288.05  287.97  287.85  287.68  287.46  287.21  286.97  286.75  286.54  286.36  286.22  286.14
1
              HEAD IN LAYER  4 AT END OF TIME STEP  8 IN STRESS PERIOD  2
  -----------------------------------------------------------------------

           1       2       3       4       5       6       7       8       9      10      11      12      13      14      15
          16      17      18      19      20      21      22      23      24      25      26      27
 ...........................................................................................................................
   1   290.04  289.99  289.89  289.73  289.54  289.31  289.05  288.78  288.53  288.35  288.23  288.14  288.09  288.06  288.02
       287.97  287.88  287.77  287.60  287.39  287.15  286.93  286.73  286.54  286.38  286.27  286.20
   2   290.02  289.97  289.86  289.70  289.50  289.27  289.00  288.72  288.47  288.29  288.16  288.08  288.02  287.99  287.95
       287.90  287.81  287.70  287.54  287.33  287.10  286.89  286.69  286.51  286.36  286.24  286.18
   3   289.98  289.92  289.81  289.64  289.43  289.18  288.90  288.60  288.34  288.15  288.03  287.94  287.88  287.85  287.81
       287.76  287.68  287.56  287.41  287.21  287.00  286.80  286.62  286.45  286.31  286.20  286.14
   4   289.92  289.86  289.74  289.56  289.33  289.05  288.75  288.42  288.14  287.94  287.81  287.72  287.67  287.63  287.60
       287.54  287.46  287.35  287.21  287.03  286.84  286.67  286.52  286.37  286.24  286.14  286.08
   5   289.85  289.79  289.65  289.45  289.19  288.89  288.54  288.17  287.86  287.65  287.51  287.41  287.36  287.32  287.29
       287.24  287.16  287.06  286.93  286.78  286.64  286.51  286.38  286.26  286.15  286.07  286.02
   6   289.78  289.70  289.55  289.33  289.04  288.69  288.29  287.86  287.49  287.24  287.09  286.99  286.93  286.90  286.86
       286.81  286.74  286.66  286.56  286.47  286.39  286.31  286.23  286.14  286.06  285.99  285.94
   7   289.70  289.62  289.45  289.21  288.88  288.47  287.99  287.47  287.00  286.70  286.52  286.41  286.34  286.31  286.27
       286.23  286.17  286.11  286.08  286.08  286.09  286.09  286.07  286.02  285.96  285.91  285.87
   8   289.64  289.55  289.37  289.09  288.72  288.25  287.68  287.01  286.38  285.95  285.69  285.55  285.47  285.44  285.41
       285.37  285.34  285.36  285.45  285.62  285.78  285.87  285.91  285.91  285.88  285.84  285.81
   9   289.59  289.50  289.31  289.01  288.61  288.08  287.42  286.58  285.68  284.97  284.51  284.25  284.15  284.10  284.08
       284.07  284.16  284.38  284.75  285.19  285.52  285.71  285.80  285.83  285.82  285.79  285.77
  10   289.57  289.48  289.28  288.97  288.55  288.00  287.27  286.31  285.12  283.97  283.03  282.43  282.19  282.13  282.12
       282.25  282.68  283.38  284.20  284.92  285.37  285.62  285.74  285.79  285.79  285.77  285.75
  11   289.56  289.47  289.26  288.96  288.53  287.96  287.20  286.17  284.78  283.14  281.40  279.90  279.19  279.04  279.12
       279.72  281.05  282.55  283.85  284.77  285.30  285.58  285.72  285.77  285.78  285.76  285.74
  12   289.56  289.46  289.26  288.95  288.52  287.94  287.17  286.10  284.61  282.62  279.99  276.71  274.28  273.58  274.21
       276.53  279.64  282.04  283.68  284.71  285.27  285.56  285.71  285.77  285.77  285.75  285.74
  13   289.56  289.46  289.26  288.95  288.51  287.93  287.16  286.09  284.55  282.44  279.33  274.33  268.01  263.73  267.94
       274.16  278.98  281.85  283.63  284.69  285.26  285.56  285.71  285.76  285.77  285.75  285.73
  14   289.56  289.46  289.26  288.95  288.51  287.93  287.16  286.08  284.55  282.41  279.21  273.67  263.77  244.03  263.70
       273.49  278.86  281.82  283.62  284.69  285.26  285.56  285.71  285.76  285.77  285.75  285.73
  15   289.56  289.46  289.26  288.95  288.51  287.93  287.16  286.09  284.55  282.44  279.33  274.33  268.01  263.73  267.94
       274.16  278.98  281.85  283.63  284.69  285.26  285.56  285.71  285.76  285.77  285.75  285.73
  16   289.56  289.46  289.26  288.95  288.52  287.94  287.17  286.10  284.61  282.62  279.99  276.71  274.28  273.58  274.21
       276.53  279.64  282.04  283.68  284.71  285.27  285.56  285.71  285.77  285.77  285.75  285.74
  17   289.56  289.47  289.26  288.96  288.53  287.96  287.20  286.17  284.78  283.14  281.40  279.90  279.19  279.04  279.12
       279.72  281.05  282.55  283.85  284.77  285.30  285.58  285.72  285.77  285.78  285.76  285.74
  18   289.57  289.48  289.28  288.97  288.55  288.00  287.27  286.31  285.12  283.97  283.03  282.43  282.19  282.13  282.12
       282.25  282.68  283.38  284.20  284.92  285.37  285.62  285.74  285.79  285.79  285.77  285.75
  19   289.59  289.50  289.31  289.01  288.61  288.08  287.42  286.58  285.68  284.97  284.51  284.25  284.15  284.10  284.08
       284.07  284.16  284.38  284.75  285.19  285.52  285.71  285.80  285.83  285.82  285.79  285.77
  20   289.64  289.55  289.37  289.09  288.72  288.25  287.68  287.01  286.38  285.95  285.69  285.55  285.47  285.44  285.41
       285.37  285.34  285.36  285.45  285.62  285.78  285.87  285.91  285.91  285.88  285.84  285.81
  21   289.70  289.62  289.45  289.21  288.88  288.47  287.99  287.47  287.00  286.70  286.52  286.41  286.34  286.31  286.27
       286.23  286.17  286.11  286.08  286.08  286.09  286.09  286.07  286.02  285.96  285.91  285.87
  22   289.78  289.70  289.55  289.33  289.04  288.69  288.29  287.86  287.49  287.24  287.09  286.99  286.93  286.90  286.86
       286.81  286.74  286.66  286.56  286.47  286.39  286.31  286.23  286.14  286.06  285.99  285.94
  23   289.85  289.79  289.65  289.45  289.19  288.89  288.54  288.17  287.86  287.65  287.51  287.41  287.36  287.32  287.29
       287.24  287.16  287.06  286.93  286.78  286.64  286.51  286.38  286.26  286.15  286.07  286.02
  24   289.92  289.86  289.74  289.56  289.33  289.05  288.75  288.42  288.14  287.94  287.81  287.72  287.67  287.63  287.60
       287.54  287.46  287.35  287.21  287.03  286.84  286.67  286.52  286.37  286.24  286.14  286.08
  25   289.98  289.92  289.81  289.64  289.43  289.18  288.90  288.60  288.34  288.15  288.03  287.94  287.88  287.85  287.81
       287.76  287.68  287.56  287.41  287.21  287.00  286.80  286.62  286.45  286.31  286.20  286.14
  26   290.02  289.97  289.86  289.70  289.50  289.27  289.00  288.72  288.47  288.29  288.16  288.08  288.02  287.99  287.95
       287.90  287.81  287.70  287.54  287.33  287.10  286.89  286.69  286.51  286.36  286.24  286.18
  27   290.04  289.99  289.89  289.73  289.54  289.31  289.05  288.78  288.53  288.35  288.23  288.14  288.09  288.06  288.02
       287.97  287.88  287.77  287.60  287.39  287.15  286.93  286.73  286.54  286.38  286.27  286.20
1
              HEAD IN LAYER  5 AT END OF TIME STEP  8 IN STRESS PERIOD  2
  -----------------------------------------------------------------------

           1       2       3       4       5       6       7       8       9      10      11      12      13      14      15
          16      17      18      19      20      21      22      23      24      25      26      27
 ...........................................................................................................................
   1   289.99  289.93  289.83  289.68  289.48  289.26  289.00  288.73  288.48  288.31  288.18  288.10  288.04  288.01  287.98
       287.92  287.84  287.73  287.57  287.35  287.12  286.91  286.71  286.54  286.39  286.29  286.23
   2   289.96  289.91  289.80  289.65  289.45  289.21  288.95  288.67  288.42  288.24  288.12  288.03  287.98  287.94  287.91
       287.85  287.77  287.66  287.50  287.29  287.07  286.87  286.68  286.51  286.37  286.27  286.21
   3   289.92  289.87  289.75  289.59  289.38  289.13  288.85  288.55  288.29  288.11  287.98  287.89  287.84  287.80  287.77
       287.72  287.63  287.52  287.37  287.18  286.97  286.78  286.61  286.45  286.32  286.22  286.17
   4   289.87  289.80  289.68  289.50  289.27  289.00  288.69  288.37  288.09  287.89  287.76  287.67  287.62  287.59  287.55
       287.50  287.42  287.31  287.17  287.00  286.82  286.65  286.50  286.37  286.25  286.16  286.11
   5   289.80  289.73  289.59  289.40  289.14  288.83  288.49  288.12  287.81  287.60  287.46  287.37  287.31  287.27  287.24
       287.19  287.11  287.02  286.89  286.75  286.61  286.49  286.37  286.26  286.16  286.09  286.05
   6   289.72  289.65  289.50  289.27  288.98  288.63  288.23  287.80  287.43  287.19  287.04  286.94  286.88  286.85  286.81
       286.76  286.69  286.61  286.52  286.43  286.36  286.29  286.22  286.14  286.07  286.01  285.97
   7   289.65  289.56  289.40  289.15  288.82  288.41  287.94  287.41  286.94  286.64  286.46  286.35  286.28  286.25  286.22
       286.17  286.11  286.06  286.03  286.03  286.06  286.07  286.06  286.02  285.97  285.93  285.90
   8   289.58  289.49  289.31  289.03  288.66  288.19  287.62  286.94  286.31  285.88  285.63  285.49  285.42  285.39  285.35
       285.32  285.29  285.30  285.39  285.57  285.74  285.85  285.90  285.91  285.88  285.86  285.84
   9   289.54  289.44  289.25  288.96  288.55  288.02  287.35  286.51  285.62  284.96  284.56  284.35  284.25  284.21  284.19
       284.17  284.21  284.38  284.70  285.14  285.48  285.68  285.79  285.83  285.83  285.81  285.80
  10   289.52  289.42  289.22  288.92  288.49  287.94  287.20  286.24  285.11  284.16  283.53  283.18  283.04  282.99  282.97
       283.00  283.18  283.58  284.20  284.87  285.33  285.60  285.73  285.79  285.80  285.79  285.78
  11   289.51  289.41  289.21  288.90  288.47  287.89  287.13  286.10  284.83  283.64  282.74  282.20  281.98  281.92  281.92
       282.02  282.39  283.06  283.91  284.73  285.26  285.55  285.71  285.77  285.78  285.78  285.77
  12   289.50  289.40  289.20  288.89  288.46  287.88  287.10  286.04  284.70  283.37  282.28  281.52  281.19  281.11  281.12
       281.34  281.93  282.79  283.78  284.67  285.23  285.54  285.70  285.76  285.78  285.77  285.76
  13   289.50  289.40  289.20  288.89  288.46  287.87  287.10  286.03  284.66  283.29  282.12  281.24  280.80  280.67  280.73
       281.07  281.77  282.71  283.74  284.65  285.22  285.53  285.69  285.76  285.78  285.77  285.76
  14   289.50  289.40  289.20  288.89  288.45  287.87  287.10  286.02  284.65  283.28  282.09  281.19  280.70  280.52  280.63
       281.02  281.75  282.70  283.74  284.65  285.22  285.53  285.69  285.76  285.78  285.77  285.76
  15   289.50  289.40  289.20  288.89  288.46  287.87  287.10  286.03  284.66  283.29  282.12  281.24  280.80  280.67  280.73
       281.07  281.77  282.71  283.74  284.65  285.22  285.53  285.69  285.76  285.78  285.77  285.76
  16   289.50  289.40  289.20  288.89  288.46  287.88  287.10  286.04  284.70  283.37  282.28  281.52  281.19  281.11  281.12
       281.34  281.93  282.79  283.78  284.67  285.23  285.54  285.70  285.76  285.78  285.77  285.76
  17   289.51  289.41  289.21  288.90  288.47  287.89  287.13  286.10  284.83  283.64  282.74  282.20  281.98  281.92  281.92
       282.02  282.39  283.06  283.91  284.73  285.26  285.55  285.71  285.77  285.78  285.78  285.77
  18   289.52  289.42  289.22  288.92  288.49  287.94  287.20  286.24  285.11  284.16  283.53  283.18  283.04  282.99  282.97
       283.00  283.18  283.58  284.20  284.87  285.33  285.60  285.73  285.79  285.80  285.79  285.78
  19   289.54  289.44  289.25  288.96  288.55  288.02  287.35  286.51  285.62  284.96  284.56  284.35  284.25  284.21  284.19
       284.17  284.21  284.38  284.70  285.14  285.48  285.68  285.79  285.83  285.83  285.81  285.80
  20   289.58  289.49  289.31  289.03  288.66  288.19  287.62  286.94  286.31  285.88  285.63  285.49  285.42  285.39  285.35
       285.32  285.29  285.30  285.39  285.57  285.74  285.85  285.90  285.91  285.88  285.86  285.84
  21   289.65  289.56  289.40  289.15  288.82  288.41  287.94  287.41  286.94  286.64  286.46  286.35  286.28  286.25  286.22
       286.17  286.11  286.06  286.03  286.03  286.06  286.07  286.06  286.02  285.97  285.93  285.90
  22   289.72  289.65  289.50  289.27  288.98  288.63  288.23  287.80  287.43  287.19  287.04  286.94  286.88  286.85  286.81
       286.76  286.69  286.61  286.52  286.43  286.36  286.29  286.22  286.14  286.07  286.01  285.97
  23   289.80  289.73  289.59  289.40  289.14  288.83  288.49  288.12  287.81  287.60  287.46  287.37  287.31  287.27  287.24
       287.19  287.11  287.02  286.89  286.75  286.61  286.49  286.37  286.26  286.16  286.09  286.05
  24   289.87  289.80  289.68  289.50  289.27  289.00  288.69  288.37  288.09  287.89  287.76  287.67  287.62  287.59  287.55
       287.50  287.42  287.31  287.17  287.00  286.82  286.65  286.50  286.37  286.25  286.16  286.11
  25   289.92  289.87  289.75  289.59  289.38  289.13  288.85  288.55  288.29  288.11  287.98  287.89  287.84  287.80  287.77
       287.72  287.63  287.52  287.37  287.18  286.97  286.78  286.61  286.45  286.32  286.22  286.17
  26   289.97  289.91  289.80  289.65  289.45  289.21  288.95  288.67  288.42  288.24  288.12  288.03  287.98  287.94  287.91
       287.85  287.77  287.66  287.50  287.29  287.07  286.87  286.68  286.51  286.37  286.27  286.21
  27   289.99  289.93  289.83  289.68  289.48  289.26  289.00  288.73  288.48  288.31  288.18  288.10  288.04  288.01  287.98
       287.92  287.84  287.73  287.57  287.35  287.12  286.91  286.71  286.54  286.39  286.29  286.23

 HEAD WILL BE SAVED ON UNIT  32 AT END OF TIME STEP  8, STRESS PERIOD  2
1
  VOLUMETRIC BUDGET FOR ENTIRE MODEL AT END OF TIME STEP  8 IN STRESS PERIOD  2
  -----------------------------------------------------------------------------

     CUMULATIVE VOLUMES      L**3       RATES FOR THIS TIME STEP      L**3/T
     ------------------                 ------------------------

           IN:                                      IN:
           ---                                      ---
             STORAGE =    87677936.0000               STORAGE =         651.4011
       CONSTANT HEAD =           0.0000         CONSTANT HEAD =           0.0000
               WELLS =           0.0000                 WELLS =           0.0000
       RIVER LEAKAGE =           0.0000         RIVER LEAKAGE =           0.0000
            RECHARGE = 56552435700.0000              RECHARGE =      292336.1880

            TOTAL IN = 56640114700.0000              TOTAL IN =      292987.5940

          OUT:                                     OUT:
          ----                                     ----
             STORAGE =         156.2275               STORAGE =           0.0000
       CONSTANT HEAD =           0.0000         CONSTANT HEAD =           0.0000
               WELLS = 16352000000.0000                 WELLS =      160000.0000
       RIVER LEAKAGE = 40281051100.0000         RIVER LEAKAGE =      132991.8130
            RECHARGE =           0.0000              RECHARGE =           0.0000

           TOTAL OUT = 56633049100.0000             TOTAL OUT =      292991.8130

            IN - OUT =     7065600.0000              IN - OUT =          -4.2188

 PERCENT DISCREPANCY =           0.01     PERCENT DISCREPANCY =           0.00






          TIME SUMMARY AT END OF TIME STEP  8 IN STRESS PERIOD  2
                    SECONDS     MINUTES      HOURS       DAYS        YEARS
                    -----------------------------------------------------------
   TIME STEP LENGTH 4.74895E+08 7.91492E+06 1.31915E+05  5496.5      15.049    
 STRESS PERIOD TIME 9.46080E+08 1.57680E+07 2.62800E+05  10950.      29.979    
         TOTAL TIME 1.67141E+10 2.78568E+08 4.64280E+06 1.93450E+05  529.64    
1
1
                            STRESS PERIOD NO.   3, LENGTH =   456200.0    
                            ----------------------------------------------

                              NUMBER OF TIME STEPS =     1

                               MULTIPLIER FOR DELT =     1.000

                            INITIAL TIME STEP SIZE =   456200.0    

 REUSING NON-PARAMETER WELLS FROM LAST STRESS PERIOD

     2 WELLS

 REUSING NON-PARAMETER RIVER REACHES FROM LAST STRESS PERIOD

    27 RIVER REACHES

 REUSING RECH FROM LAST STRESS PERIOD
 
 SOLVING FOR HEAD 

    23 ITERATIONS FOR TIME STEP   1 IN STRESS PERIOD  3

 MAXIMUM HEAD CHANGE FOR EACH ITERATION:

    HEAD CHANGE   HEAD CHANGE   HEAD CHANGE   HEAD CHANGE   HEAD CHANGE
  LAYER,ROW,COL LAYER,ROW,COL LAYER,ROW,COL LAYER,ROW,COL LAYER,ROW,COL
 ----------------------------------------------------------------------
    -0.1474E-02   -0.3382E-02   -0.8242E-02   -0.1462E-01   -0.4273E-01
  (  1,  1,  1) (  1, 27,  1) (  1,  1,  1) (  1, 21,  1) (  1, 14, 14)
    -0.9988E-02    0.3336E-02    0.3174E-02   -0.3865E-02   -0.8434E-02
  (  1, 14, 14) (  1, 26, 25) (  1, 24, 23) (  5,  3,  1) (  3, 17,  1)
    -0.1120E-02   -0.6035E-03   -0.7571E-03   -0.1653E-02   -0.7804E-02
  (  1, 14, 14) (  1, 14, 14) (  5,  3, 27) (  1, 14, 14) (  5,  6, 15)
    -0.1836E-02    0.6228E-03    0.7304E-03    0.6660E-03   -0.9794E-03
  (  1, 14, 14) (  1, 26, 25) (  1, 14, 24) (  1, 10, 23) (  4, 16,  1)
    -0.1125E-03   -0.1204E-03   -0.7935E-04
  (  1, 19,  9) (  1, 18, 10) (  1, 27,  2)


 OUTPUT CONTROL FOR STRESS PERIOD  3   TIME STEP  1
    PRINT BUDGET
    PRINT HEAD FOR ALL LAYERS
    SAVE HEAD FOR ALL LAYERS
    SAVE BUDGET
 UBDSV1 SAVING "         STORAGE" ON UNIT  34 AT TIME STEP  1, STRESS PERIOD  3
 UBDSV2 SAVING "   CONSTANT HEAD" ON UNIT  34 AT TIME STEP  1, STRESS PERIOD  3
 UBDSV1 SAVING "FLOW RIGHT FACE " ON UNIT  34 AT TIME STEP  1, STRESS PERIOD  3
 UBDSV1 SAVING "FLOW FRONT FACE " ON UNIT  34 AT TIME STEP  1, STRESS PERIOD  3
 UBDSV1 SAVING "FLOW LOWER FACE " ON UNIT  34 AT TIME STEP  1, STRESS PERIOD  3
 UBDSV4 SAVING "           WELLS" ON UNIT  34 AT TIME STEP  1, STRESS PERIOD  3
 UBDSV4 SAVING "   RIVER LEAKAGE" ON UNIT  34 AT TIME STEP  1, STRESS PERIOD  3
 UBDSV3 SAVING "        RECHARGE" ON UNIT  34 AT TIME STEP  1, STRESS PERIOD  3
1
              HEAD IN LAYER  1 AT END OF TIME STEP  1 IN STRESS PERIOD  3
  -----------------------------------------------------------------------

           1       2       3       4       5       6       7       8       9      10      11      12      13      14      15
          16      17      18      19      20      21      22      23      24      25      26      27
 ...........................................................................................................................
   1   294.94  294.87  294.73  294.53  294.27  293.95  293.58  293.17  292.77  292.48  292.26  292.10  291.99  291.93  291.86
       291.75  291.58  291.33  290.96  290.40  289.69  288.87  287.93  286.83  285.54  283.99  282.14
   2   294.91  294.84  294.70  294.50  294.23  293.90  293.52  293.10  292.70  292.40  292.18  292.02  291.91  291.85  291.78
       291.67  291.50  291.25  290.89  290.33  289.63  288.82  287.89  286.80  285.51  283.98  282.13
   3   294.87  294.79  294.65  294.43  294.14  293.80  293.40  292.96  292.55  292.24  292.01  291.85  291.75  291.68  291.61
       291.51  291.34  291.09  290.73  290.19  289.51  288.72  287.81  286.74  285.47  283.95  282.12
   4   294.80  294.72  294.56  294.33  294.02  293.65  293.22  292.75  292.31  291.98  291.76  291.59  291.49  291.42  291.35
       291.24  291.08  290.84  290.49  289.98  289.32  288.58  287.70  286.66  285.41  283.91  282.10
   5   294.72  294.64  294.46  294.21  293.87  293.46  292.98  292.45  291.97  291.63  291.39  291.22  291.11  291.04  290.98
       290.87  290.71  290.48  290.15  289.68  289.08  288.38  287.55  286.54  285.33  283.86  282.07
   6   294.64  294.54  294.35  294.07  293.69  293.22  292.68  292.07  291.52  291.13  290.87  290.70  290.59  290.52  290.45
       290.35  290.19  289.98  289.69  289.28  288.77  288.14  287.37  286.41  285.24  283.80  282.04
   7   294.55  294.45  294.24  293.93  293.50  292.96  292.32  291.59  290.92  290.46  290.17  289.97  289.86  289.79  289.72
       289.62  289.48  289.30  289.08  288.79  288.40  287.88  287.18  286.28  285.15  283.74  282.01
   8   294.48  294.37  294.14  293.79  293.31  292.70  291.94  291.03  290.15  289.54  289.16  288.92  288.80  288.73  288.66
       288.57  288.46  288.36  288.29  288.21  288.00  287.60  286.99  286.15  285.06  283.69  281.99
   9   294.43  294.31  294.07  293.70  293.18  292.50  291.62  290.51  289.32  288.41  287.82  287.49  287.33  287.25  287.19
       287.13  287.11  287.21  287.44  287.67  287.67  287.40  286.86  286.06  285.00  283.65  281.97
  10   294.41  294.29  294.04  293.65  293.11  292.39  291.44  290.18  288.69  287.39  286.43  285.85  285.61  285.51  285.46
       285.48  285.70  286.17  286.80  287.34  287.49  287.29  286.79  286.02  284.97  283.64  281.96
  11   294.40  294.27  294.02  293.63  293.08  292.34  291.36  290.01  288.33  286.65  285.18  284.09  283.59  283.45  283.44
       283.71  284.44  285.43  286.43  287.16  287.40  287.24  286.76  286.00  284.96  283.63  281.96
  12   294.39  294.27  294.02  293.62  293.07  292.33  291.32  289.94  288.16  286.25  284.26  282.29  280.98  280.59  280.82
       281.89  283.52  285.01  286.25  287.09  287.36  287.22  286.75  285.99  284.96  283.62  281.96
  13   294.39  294.27  294.01  293.62  293.07  292.32  291.31  289.92  288.11  286.11  283.88  281.10  278.03  276.01  277.87
       280.70  283.13  284.88  286.20  287.07  287.35  287.21  286.74  285.99  284.96  283.62  281.96
  14   294.39  294.27  294.01  293.62  293.07  292.32  291.31  289.92  288.10  286.09  283.81  280.78  276.10  266.35  275.93
       280.38  283.06  284.85  286.19  287.06  287.35  287.21  286.74  285.99  284.95  283.62  281.96
  15   294.39  294.27  294.01  293.62  293.07  292.32  291.31  289.92  288.11  286.11  283.88  281.10  278.03  276.01  277.87
       280.70  283.13  284.88  286.20  287.07  287.35  287.21  286.74  285.99  284.96  283.62  281.96
  16   294.39  294.27  294.02  293.62  293.07  292.33  291.32  289.94  288.16  286.25  284.26  282.29  280.98  280.59  280.82
       281.89  283.52  285.01  286.25  287.09  287.36  287.22  286.75  285.99  284.96  283.62  281.96
  17   294.40  294.27  294.02  293.63  293.08  292.34  291.36  290.01  288.33  286.65  285.18  284.09  283.59  283.45  283.44
       283.71  284.44  285.43  286.43  287.16  287.40  287.24  286.76  286.00  284.96  283.63  281.96
  18   294.41  294.29  294.04  293.65  293.11  292.39  291.44  290.18  288.69  287.39  286.43  285.85  285.61  285.51  285.46
       285.48  285.70  286.17  286.80  287.34  287.49  287.29  286.79  286.02  284.97  283.64  281.96
  19   294.43  294.31  294.07  293.70  293.18  292.50  291.62  290.51  289.32  288.41  287.82  287.49  287.33  287.25  287.19
       287.13  287.11  287.21  287.44  287.67  287.67  287.40  286.86  286.06  285.00  283.65  281.97
  20   294.48  294.37  294.14  293.79  293.31  292.70  291.94  291.03  290.15  289.54  289.16  288.92  288.80  288.73  288.66
       288.57  288.46  288.36  288.29  288.21  288.00  287.60  286.99  286.15  285.06  283.69  281.99
  21   294.55  294.45  294.24  293.93  293.50  292.96  292.32  291.59  290.92  290.46  290.17  289.97  289.86  289.79  289.72
       289.62  289.48  289.30  289.08  288.79  288.40  287.88  287.18  286.28  285.15  283.74  282.01
  22   294.64  294.54  294.35  294.07  293.69  293.22  292.68  292.07  291.52  291.13  290.87  290.70  290.59  290.52  290.45
       290.35  290.19  289.98  289.69  289.28  288.77  288.14  287.37  286.41  285.24  283.80  282.04
  23   294.72  294.64  294.46  294.21  293.87  293.46  292.98  292.45  291.97  291.63  291.39  291.22  291.11  291.04  290.98
       290.87  290.71  290.48  290.15  289.68  289.08  288.38  287.55  286.54  285.33  283.86  282.07
  24   294.80  294.72  294.56  294.33  294.02  293.65  293.22  292.75  292.31  291.98  291.76  291.59  291.49  291.42  291.35
       291.25  291.08  290.84  290.49  289.98  289.32  288.58  287.70  286.66  285.41  283.91  282.10
  25   294.87  294.79  294.65  294.43  294.14  293.80  293.40  292.96  292.55  292.24  292.01  291.85  291.75  291.68  291.61
       291.51  291.34  291.09  290.73  290.19  289.51  288.72  287.82  286.74  285.47  283.95  282.12
  26   294.91  294.84  294.70  294.50  294.23  293.90  293.52  293.10  292.70  292.40  292.18  292.02  291.91  291.85  291.78
       291.67  291.50  291.25  290.89  290.33  289.63  288.82  287.89  286.80  285.51  283.98  282.13
  27   294.94  294.87  294.73  294.53  294.27  293.95  293.58  293.17  292.77  292.48  292.26  292.10  291.99  291.93  291.86
       291.75  291.58  291.33  290.96  290.40  289.69  288.87  287.93  286.83  285.54  283.99  282.14
1
              HEAD IN LAYER  2 AT END OF TIME STEP  1 IN STRESS PERIOD  3
  -----------------------------------------------------------------------

           1       2       3       4       5       6       7       8       9      10      11      12      13      14      15
          16      17      18      19      20      21      22      23      24      25      26      27
 ...........................................................................................................................
   1   290.27  290.21  290.11  289.95  289.76  289.52  289.26  288.98  288.72  288.54  288.41  288.32  288.26  288.22  288.19
       288.13  288.04  287.92  287.74  287.51  287.24  286.99  286.74  286.50  286.29  286.10  285.98
   2   290.25  290.19  290.08  289.92  289.72  289.48  289.21  288.92  288.66  288.47  288.34  288.25  288.19  288.16  288.12
       288.06  287.97  287.85  287.68  287.45  287.19  286.95  286.70  286.47  286.26  286.08  285.96
   3   290.21  290.15  290.03  289.86  289.65  289.39  289.10  288.80  288.53  288.34  288.20  288.11  288.05  288.02  287.98
       287.92  287.84  287.72  287.55  287.33  287.09  286.86  286.63  286.42  286.21  286.04  285.92
   4   290.15  290.08  289.96  289.78  289.54  289.26  288.95  288.62  288.33  288.12  287.99  287.89  287.83  287.80  287.76
       287.71  287.62  287.50  287.35  287.15  286.94  286.73  286.53  286.33  286.14  285.98  285.87
   5   290.08  290.01  289.87  289.67  289.41  289.09  288.74  288.37  288.05  287.83  287.69  287.59  287.53  287.49  287.46
       287.40  287.32  287.21  287.07  286.90  286.73  286.56  286.40  286.23  286.06  285.91  285.80
   6   290.00  289.92  289.77  289.55  289.25  288.90  288.49  288.06  287.69  287.44  287.28  287.18  287.12  287.08  287.05
       286.99  286.91  286.82  286.71  286.59  286.48  286.37  286.24  286.11  285.96  285.83  285.73
   7   289.92  289.84  289.67  289.42  289.09  288.68  288.20  287.68  287.23  286.93  286.75  286.64  286.58  286.54  286.50
       286.45  286.38  286.31  286.25  286.21  286.19  286.15  286.08  285.98  285.87  285.75  285.66
   8   289.86  289.77  289.58  289.31  288.93  288.46  287.90  287.26  286.67  286.30  286.07  285.94  285.87  285.84  285.80
       285.75  285.70  285.68  285.70  285.78  285.88  285.93  285.93  285.87  285.78  285.68  285.60
   9   289.82  289.72  289.52  289.23  288.82  288.30  287.66  286.89  286.14  285.64  285.34  285.18  285.10  285.06  285.03
       284.99  284.97  285.02  285.16  285.42  285.64  285.77  285.82  285.79  285.72  285.63  285.56
  10   289.79  289.70  289.50  289.19  288.77  288.22  287.52  286.67  285.80  285.18  284.80  284.60  284.50  284.46  284.43
       284.41  284.43  284.56  284.82  285.20  285.51  285.69  285.76  285.75  285.69  285.61  285.54
  11   289.78  289.68  289.48  289.17  288.74  288.18  287.46  286.57  285.63  284.92  284.47  284.23  284.13  284.08  284.05
       284.04  284.10  284.30  284.65  285.10  285.45  285.65  285.74  285.74  285.68  285.60  285.53
  12   289.78  289.68  289.48  289.16  288.73  288.16  287.44  286.53  285.55  284.80  284.32  284.05  283.93  283.89  283.86
       283.86  283.95  284.18  284.57  285.05  285.42  285.63  285.73  285.73  285.68  285.60  285.53
  13   289.78  289.68  289.48  289.16  288.73  288.16  287.43  286.51  285.53  284.77  284.27  283.99  283.87  283.82  283.79
       283.80  283.90  284.15  284.55  285.04  285.42  285.63  285.72  285.73  285.67  285.59  285.53
  14   289.78  289.68  289.48  289.16  288.73  288.16  287.43  286.51  285.53  284.76  284.26  283.98  283.85  283.80  283.78
       283.79  283.89  284.14  284.54  285.04  285.42  285.63  285.72  285.73  285.67  285.59  285.52
  15   289.78  289.68  289.48  289.16  288.73  288.16  287.43  286.51  285.53  284.77  284.27  283.99  283.87  283.82  283.79
       283.80  283.90  284.15  284.55  285.04  285.42  285.63  285.72  285.73  285.67  285.59  285.53
  16   289.78  289.68  289.48  289.16  288.73  288.16  287.44  286.53  285.55  284.80  284.32  284.05  283.93  283.89  283.86
       283.86  283.95  284.18  284.57  285.05  285.42  285.63  285.73  285.73  285.68  285.60  285.53
  17   289.78  289.68  289.48  289.17  288.74  288.18  287.46  286.57  285.63  284.92  284.47  284.23  284.13  284.08  284.05
       284.04  284.10  284.30  284.65  285.10  285.45  285.65  285.74  285.74  285.68  285.60  285.53
  18   289.79  289.70  289.50  289.19  288.77  288.22  287.52  286.67  285.80  285.18  284.80  284.60  284.50  284.46  284.43
       284.41  284.43  284.56  284.82  285.20  285.51  285.69  285.76  285.75  285.69  285.61  285.54
  19   289.82  289.72  289.52  289.23  288.82  288.30  287.66  286.89  286.14  285.64  285.34  285.18  285.10  285.06  285.03
       284.99  284.97  285.02  285.16  285.42  285.64  285.77  285.82  285.79  285.72  285.63  285.56
  20   289.86  289.77  289.58  289.31  288.93  288.46  287.90  287.26  286.67  286.30  286.07  285.94  285.87  285.84  285.80
       285.75  285.70  285.68  285.70  285.78  285.88  285.93  285.93  285.87  285.78  285.68  285.60
  21   289.92  289.84  289.67  289.42  289.09  288.68  288.20  287.68  287.23  286.93  286.75  286.64  286.58  286.54  286.50
       286.45  286.38  286.31  286.25  286.21  286.19  286.15  286.08  285.98  285.87  285.75  285.66
  22   290.00  289.92  289.77  289.55  289.25  288.90  288.49  288.06  287.69  287.44  287.28  287.18  287.12  287.08  287.05
       286.99  286.91  286.82  286.71  286.59  286.48  286.37  286.24  286.11  285.96  285.83  285.73
  23   290.08  290.01  289.87  289.67  289.41  289.09  288.74  288.37  288.05  287.83  287.69  287.59  287.53  287.49  287.46
       287.40  287.32  287.21  287.07  286.90  286.73  286.56  286.40  286.23  286.06  285.91  285.80
  24   290.15  290.08  289.96  289.78  289.54  289.26  288.95  288.62  288.33  288.12  287.99  287.89  287.83  287.80  287.76
       287.71  287.62  287.50  287.35  287.15  286.94  286.73  286.53  286.33  286.14  285.98  285.87
  25   290.21  290.15  290.03  289.86  289.65  289.39  289.10  288.80  288.53  288.34  288.20  288.11  288.05  288.02  287.98
       287.92  287.84  287.72  287.55  287.33  287.09  286.86  286.63  286.42  286.21  286.04  285.92
  26   290.25  290.19  290.08  289.92  289.72  289.48  289.21  288.92  288.66  288.47  288.34  288.25  288.19  288.16  288.12
       288.06  287.97  287.85  287.68  287.45  287.19  286.95  286.70  286.47  286.26  286.08  285.96
  27   290.27  290.21  290.11  289.95  289.76  289.52  289.26  288.98  288.72  288.54  288.41  288.32  288.26  288.22  288.19
       288.13  288.04  287.92  287.74  287.51  287.24  286.99  286.74  286.50  286.29  286.10  285.98
1
              HEAD IN LAYER  3 AT END OF TIME STEP  1 IN STRESS PERIOD  3
  -----------------------------------------------------------------------

           1       2       3       4       5       6       7       8       9      10      11      12      13      14      15
          16      17      18      19      20      21      22      23      24      25      26      27
 ...........................................................................................................................
   1   290.09  290.04  289.94  289.78  289.59  289.36  289.10  288.82  288.57  288.39  288.27  288.18  288.12  288.09  288.05
       288.00  287.91  287.79  287.63  287.40  287.16  286.92  286.70  286.50  286.32  286.18  286.09
   2   290.07  290.02  289.91  289.75  289.55  289.31  289.05  288.76  288.51  288.33  288.20  288.11  288.05  288.02  287.98
       287.93  287.84  287.73  287.56  287.34  287.11  286.88  286.67  286.47  286.29  286.15  286.07
   3   290.03  289.97  289.86  289.69  289.48  289.23  288.94  288.64  288.38  288.19  288.06  287.97  287.92  287.88  287.85
       287.79  287.71  287.59  287.43  287.22  287.00  286.79  286.59  286.41  286.24  286.11  286.03
   4   289.97  289.91  289.79  289.61  289.37  289.10  288.79  288.46  288.18  287.98  287.85  287.76  287.70  287.66  287.63
       287.57  287.49  287.38  287.23  287.04  286.85  286.67  286.49  286.32  286.17  286.05  285.98
   5   289.90  289.83  289.70  289.50  289.24  288.93  288.58  288.22  287.90  287.69  287.54  287.45  287.39  287.36  287.32
       287.27  287.19  287.09  286.96  286.80  286.64  286.50  286.36  286.22  286.09  285.98  285.91
   6   289.83  289.75  289.60  289.38  289.09  288.73  288.33  287.90  287.53  287.29  287.14  287.04  286.98  286.94  286.91
       286.85  286.78  286.69  286.59  286.48  286.39  286.30  286.21  286.10  285.99  285.90  285.84
   7   289.75  289.67  289.50  289.25  288.92  288.52  288.04  287.52  287.06  286.77  286.59  286.48  286.41  286.38  286.34
       286.30  286.23  286.17  286.12  286.10  286.10  286.09  286.04  285.98  285.90  285.82  285.77
   8   289.69  289.60  289.41  289.14  288.77  288.30  287.73  287.08  286.48  286.08  285.85  285.71  285.64  285.60  285.57
       285.53  285.49  285.48  285.54  285.66  285.79  285.87  285.89  285.86  285.81  285.75  285.70
   9   289.64  289.55  289.35  289.06  288.66  288.13  287.48  286.69  285.88  285.29  284.93  284.74  284.65  284.61  284.58
       284.56  284.58  284.69  284.93  285.27  285.54  285.71  285.78  285.78  285.75  285.70  285.66
  10   289.62  289.52  289.32  289.02  288.60  288.05  287.35  286.45  285.45  284.63  284.07  283.77  283.64  283.60  283.57
       283.59  283.72  284.03  284.50  285.03  285.41  285.62  285.72  285.75  285.72  285.68  285.64
  11   289.61  289.51  289.31  289.00  288.58  288.01  287.28  286.33  285.21  284.19  283.42  282.94  282.74  282.69  282.67
       282.76  283.06  283.59  284.26  284.91  285.34  285.58  285.70  285.73  285.71  285.67  285.63
  12   289.61  289.51  289.31  289.00  288.57  288.00  287.25  286.28  285.10  283.97  283.02  282.35  282.04  281.96  281.97
       282.17  282.67  283.37  284.15  284.86  285.31  285.57  285.69  285.72  285.70  285.66  285.63
  13   289.61  289.51  289.31  288.99  288.56  287.99  287.25  286.26  285.07  283.90  282.88  282.10  281.68  281.56  281.61
       281.92  282.53  283.30  284.12  284.84  285.31  285.56  285.68  285.72  285.70  285.66  285.63
  14   289.61  289.51  289.31  288.99  288.56  287.99  287.25  286.26  285.06  283.89  282.86  282.05  281.59  281.42  281.52
       281.87  282.51  283.29  284.11  284.84  285.31  285.56  285.68  285.72  285.70  285.66  285.63
  15   289.61  289.51  289.31  288.99  288.56  287.99  287.25  286.26  285.07  283.90  282.88  282.10  281.68  281.56  281.61
       281.92  282.53  283.30  284.12  284.84  285.31  285.56  285.68  285.72  285.70  285.66  285.63
  16   289.61  289.51  289.31  289.00  288.57  288.00  287.25  286.28  285.10  283.97  283.02  282.35  282.04  281.96  281.97
       282.17  282.67  283.37  284.15  284.86  285.31  285.57  285.69  285.72  285.70  285.66  285.63
  17   289.61  289.51  289.31  289.00  288.58  288.01  287.28  286.33  285.21  284.19  283.42  282.94  282.74  282.69  282.67
       282.76  283.06  283.59  284.26  284.91  285.34  285.58  285.70  285.73  285.71  285.67  285.63
  18   289.62  289.52  289.32  289.02  288.60  288.05  287.35  286.45  285.45  284.63  284.07  283.77  283.64  283.60  283.57
       283.59  283.72  284.03  284.50  285.03  285.41  285.62  285.72  285.75  285.72  285.68  285.64
  19   289.64  289.55  289.35  289.06  288.66  288.13  287.48  286.69  285.88  285.29  284.93  284.74  284.65  284.61  284.58
       284.56  284.58  284.69  284.93  285.27  285.54  285.71  285.78  285.78  285.75  285.70  285.66
  20   289.69  289.60  289.41  289.14  288.77  288.30  287.73  287.08  286.48  286.08  285.85  285.71  285.64  285.60  285.57
       285.53  285.49  285.48  285.54  285.66  285.79  285.87  285.89  285.86  285.81  285.75  285.70
  21   289.75  289.67  289.50  289.25  288.92  288.52  288.04  287.52  287.06  286.77  286.59  286.48  286.41  286.38  286.34
       286.30  286.23  286.17  286.12  286.10  286.10  286.09  286.04  285.98  285.90  285.82  285.77
  22   289.83  289.75  289.60  289.38  289.09  288.73  288.33  287.90  287.53  287.29  287.14  287.04  286.98  286.94  286.91
       286.85  286.78  286.69  286.59  286.48  286.39  286.30  286.21  286.10  285.99  285.90  285.84
  23   289.90  289.83  289.70  289.50  289.24  288.93  288.58  288.22  287.90  287.69  287.54  287.45  287.39  287.36  287.32
       287.27  287.19  287.09  286.96  286.80  286.64  286.50  286.36  286.22  286.09  285.98  285.91
  24   289.97  289.91  289.79  289.61  289.37  289.10  288.79  288.46  288.18  287.98  287.85  287.76  287.70  287.66  287.63
       287.57  287.49  287.38  287.23  287.04  286.85  286.67  286.49  286.32  286.17  286.05  285.98
  25   290.03  289.97  289.86  289.69  289.48  289.23  288.94  288.64  288.38  288.19  288.06  287.97  287.92  287.88  287.85
       287.79  287.71  287.59  287.43  287.22  287.00  286.79  286.59  286.41  286.24  286.11  286.03
  26   290.07  290.02  289.91  289.75  289.55  289.31  289.05  288.76  288.51  288.33  288.20  288.11  288.05  288.02  287.98
       287.93  287.84  287.73  287.56  287.34  287.11  286.88  286.67  286.47  286.29  286.15  286.07
  27   290.09  290.04  289.94  289.78  289.59  289.36  289.10  288.82  288.57  288.39  288.27  288.18  288.12  288.09  288.05
       288.00  287.91  287.79  287.63  287.40  287.16  286.92  286.70  286.50  286.32  286.18  286.09
1
              HEAD IN LAYER  4 AT END OF TIME STEP  1 IN STRESS PERIOD  3
  -----------------------------------------------------------------------

           1       2       3       4       5       6       7       8       9      10      11      12      13      14      15
          16      17      18      19      20      21      22      23      24      25      26      27
 ...........................................................................................................................
   1   289.98  289.93  289.82  289.67  289.48  289.25  288.99  288.72  288.47  288.30  288.17  288.09  288.03  288.00  287.96
       287.91  287.83  287.71  287.55  287.33  287.10  286.88  286.68  286.49  286.34  286.22  286.16
   2   289.96  289.90  289.79  289.64  289.44  289.20  288.94  288.66  288.41  288.23  288.11  288.02  287.96  287.93  287.90
       287.84  287.76  287.64  287.49  287.27  287.05  286.84  286.64  286.46  286.31  286.20  286.13
   3   289.92  289.86  289.74  289.58  289.37  289.12  288.84  288.54  288.28  288.09  287.97  287.88  287.82  287.79  287.76
       287.70  287.62  287.51  287.36  287.16  286.95  286.75  286.57  286.40  286.26  286.16  286.10
   4   289.86  289.80  289.67  289.49  289.26  288.99  288.68  288.36  288.08  287.88  287.75  287.66  287.61  287.57  287.54
       287.49  287.41  287.30  287.16  286.98  286.79  286.62  286.47  286.32  286.19  286.09  286.04
   5   289.79  289.72  289.58  289.39  289.13  288.82  288.48  288.11  287.80  287.59  287.45  287.35  287.30  287.26  287.23
       287.18  287.10  287.00  286.88  286.73  286.59  286.46  286.33  286.22  286.11  286.02  285.97
   6   289.71  289.64  289.49  289.27  288.98  288.62  288.22  287.80  287.43  287.18  287.03  286.93  286.87  286.84  286.81
       286.75  286.68  286.60  286.50  286.41  286.33  286.26  286.18  286.10  286.01  285.94  285.90
   7   289.64  289.55  289.39  289.14  288.81  288.40  287.93  287.41  286.94  286.64  286.46  286.35  286.28  286.25  286.22
       286.17  286.11  286.06  286.02  286.02  286.04  286.04  286.02  285.97  285.92  285.86  285.83
   8   289.57  289.48  289.30  289.03  288.66  288.18  287.61  286.95  286.32  285.89  285.63  285.49  285.42  285.38  285.35
       285.31  285.28  285.30  285.39  285.56  285.72  285.82  285.86  285.86  285.83  285.79  285.76
   9   289.53  289.43  289.24  288.95  288.54  288.02  287.35  286.52  285.62  284.91  284.45  284.19  284.09  284.05  284.02
       284.02  284.10  284.32  284.69  285.13  285.46  285.66  285.75  285.78  285.77  285.74  285.72
  10   289.51  289.41  289.21  288.91  288.49  287.93  287.21  286.25  285.06  283.91  282.97  282.37  282.13  282.07  282.06
       282.19  282.62  283.32  284.14  284.86  285.32  285.57  285.70  285.74  285.74  285.72  285.70
  11   289.50  289.40  289.20  288.89  288.46  287.89  287.14  286.10  284.71  283.08  281.34  279.84  279.13  278.98  279.07
       279.67  280.99  282.49  283.79  284.72  285.25  285.53  285.67  285.72  285.73  285.71  285.69
  12   289.49  289.39  289.19  288.88  288.45  287.88  287.11  286.04  284.55  282.56  279.93  276.65  274.22  273.52  274.15
       276.48  279.58  281.98  283.62  284.66  285.22  285.51  285.66  285.72  285.72  285.71  285.69
  13   289.49  289.39  289.19  288.88  288.45  287.87  287.10  286.02  284.49  282.38  279.27  274.28  267.95  263.68  267.88
       274.10  278.92  281.80  283.57  284.64  285.21  285.51  285.66  285.72  285.72  285.71  285.69
  14   289.49  289.39  289.19  288.88  288.45  287.87  287.10  286.02  284.48  282.35  279.15  273.61  263.71  243.97  263.64
       273.43  278.80  281.77  283.56  284.64  285.21  285.51  285.66  285.72  285.72  285.71  285.69
  15   289.49  289.39  289.19  288.88  288.45  287.87  287.10  286.02  284.49  282.38  279.27  274.28  267.95  263.68  267.88
       274.10  278.92  281.80  283.57  284.64  285.21  285.51  285.66  285.72  285.72  285.71  285.69
  16   289.49  289.39  289.19  288.88  288.45  287.88  287.11  286.04  284.55  282.56  279.93  276.65  274.22  273.52  274.15
       276.48  279.58  281.98  283.62  284.66  285.22  285.51  285.66  285.72  285.72  285.71  285.69
  17   289.50  289.40  289.20  288.89  288.46  287.89  287.14  286.10  284.71  283.08  281.34  279.84  279.13  278.98  279.07
       279.67  280.99  282.49  283.79  284.72  285.25  285.53  285.67  285.72  285.73  285.71  285.69
  18   289.51  289.41  289.21  288.91  288.49  287.93  287.21  286.25  285.06  283.91  282.97  282.37  282.13  282.07  282.06
       282.19  282.62  283.32  284.14  284.86  285.32  285.57  285.70  285.74  285.74  285.72  285.70
  19   289.53  289.43  289.24  288.95  288.54  288.02  287.35  286.52  285.62  284.91  284.45  284.19  284.09  284.05  284.02
       284.02  284.10  284.32  284.69  285.13  285.46  285.66  285.75  285.78  285.77  285.74  285.72
  20   289.57  289.48  289.30  289.03  288.66  288.18  287.61  286.95  286.32  285.89  285.63  285.49  285.42  285.38  285.35
       285.31  285.28  285.30  285.39  285.56  285.72  285.82  285.86  285.86  285.83  285.79  285.76
  21   289.64  289.55  289.39  289.14  288.81  288.40  287.93  287.41  286.94  286.64  286.46  286.35  286.28  286.25  286.22
       286.17  286.11  286.06  286.02  286.02  286.04  286.04  286.02  285.97  285.92  285.86  285.83
  22   289.71  289.64  289.49  289.27  288.98  288.62  288.22  287.80  287.43  287.18  287.03  286.93  286.87  286.84  286.81
       286.75  286.68  286.60  286.50  286.41  286.33  286.26  286.18  286.10  286.01  285.94  285.90
  23   289.79  289.72  289.58  289.39  289.13  288.82  288.48  288.11  287.80  287.59  287.45  287.35  287.30  287.26  287.23
       287.18  287.10  287.00  286.88  286.73  286.59  286.46  286.33  286.22  286.11  286.02  285.97
  24   289.86  289.80  289.67  289.49  289.26  288.99  288.68  288.36  288.08  287.88  287.75  287.66  287.61  287.57  287.54
       287.49  287.41  287.30  287.16  286.98  286.79  286.62  286.47  286.32  286.19  286.09  286.04
  25   289.92  289.86  289.74  289.58  289.37  289.12  288.84  288.54  288.28  288.09  287.97  287.88  287.82  287.79  287.76
       287.70  287.62  287.51  287.36  287.16  286.95  286.75  286.57  286.40  286.26  286.16  286.10
  26   289.96  289.90  289.80  289.64  289.44  289.20  288.94  288.66  288.41  288.23  288.11  288.02  287.96  287.93  287.90
       287.84  287.76  287.64  287.49  287.27  287.05  286.84  286.64  286.46  286.31  286.20  286.13
  27   289.98  289.93  289.82  289.67  289.48  289.25  288.99  288.72  288.47  288.30  288.17  288.09  288.03  288.00  287.96
       287.91  287.83  287.71  287.55  287.33  287.10  286.88  286.68  286.49  286.34  286.22  286.16
1
              HEAD IN LAYER  5 AT END OF TIME STEP  1 IN STRESS PERIOD  3
  -----------------------------------------------------------------------

           1       2       3       4       5       6       7       8       9      10      11      12      13      14      15
          16      17      18      19      20      21      22      23      24      25      26      27
 ...........................................................................................................................
   1   289.92  289.87  289.76  289.61  289.42  289.19  288.94  288.67  288.42  288.25  288.13  288.04  287.99  287.95  287.92
       287.87  287.78  287.67  287.51  287.30  287.07  286.86  286.67  286.49  286.35  286.24  286.18
   2   289.90  289.84  289.74  289.58  289.38  289.15  288.89  288.61  288.36  288.18  288.06  287.97  287.92  287.88  287.85
       287.80  287.72  287.60  287.45  287.24  287.02  286.82  286.63  286.46  286.32  286.22  286.16
   3   289.86  289.80  289.69  289.52  289.31  289.06  288.78  288.49  288.23  288.05  287.92  287.83  287.78  287.75  287.71
       287.66  287.58  287.47  287.32  287.12  286.92  286.73  286.56  286.40  286.27  286.18  286.12
   4   289.80  289.74  289.62  289.44  289.21  288.93  288.63  288.31  288.03  287.83  287.71  287.62  287.56  287.53  287.49
       287.44  287.36  287.26  287.12  286.94  286.76  286.60  286.45  286.32  286.20  286.12  286.07
   5   289.73  289.66  289.53  289.33  289.07  288.77  288.42  288.06  287.75  287.54  287.40  287.31  287.25  287.22  287.18
       287.13  287.06  286.96  286.84  286.69  286.56  286.44  286.32  286.21  286.12  286.04  286.00
   6   289.65  289.58  289.43  289.21  288.92  288.57  288.17  287.74  287.37  287.13  286.98  286.88  286.82  286.79  286.75
       286.70  286.63  286.55  286.46  286.38  286.31  286.24  286.17  286.09  286.02  285.96  285.93
   7   289.58  289.50  289.33  289.08  288.76  288.35  287.87  287.35  286.88  286.58  286.40  286.29  286.23  286.19  286.16
       286.11  286.05  286.00  285.97  285.98  286.01  286.02  286.01  285.97  285.93  285.88  285.86
   8   289.51  289.42  289.24  288.97  288.60  288.13  287.55  286.88  286.25  285.82  285.57  285.43  285.36  285.33  285.30
       285.26  285.23  285.24  285.34  285.52  285.69  285.80  285.85  285.86  285.84  285.81  285.79
   9   289.47  289.38  289.18  288.89  288.49  287.96  287.29  286.45  285.56  284.90  284.50  284.29  284.20  284.16  284.13
       284.11  284.16  284.32  284.65  285.08  285.43  285.63  285.74  285.78  285.78  285.76  285.75
  10   289.45  289.35  289.15  288.85  288.43  287.87  287.14  286.18  285.05  284.10  283.47  283.12  282.98  282.94  282.92
       282.94  283.12  283.53  284.14  284.81  285.28  285.54  285.68  285.74  285.75  285.74  285.73
  11   289.44  289.34  289.14  288.83  288.40  287.83  287.07  286.04  284.76  283.58  282.68  282.14  281.92  281.87  281.86
       281.96  282.34  283.00  283.85  284.67  285.21  285.50  285.66  285.72  285.74  285.73  285.72
  12   289.44  289.34  289.14  288.83  288.39  287.81  287.04  285.98  284.64  283.31  282.22  281.46  281.13  281.05  281.06
       281.29  281.88  282.74  283.72  284.62  285.18  285.49  285.65  285.72  285.73  285.73  285.72
  13   289.44  289.34  289.13  288.82  288.39  287.81  287.03  285.97  284.60  283.23  282.06  281.18  280.74  280.61  280.67
       281.01  281.72  282.65  283.69  284.60  285.17  285.48  285.64  285.71  285.73  285.73  285.72
  14   289.44  289.34  289.13  288.82  288.39  287.81  287.03  285.96  284.59  283.22  282.03  281.14  280.64  280.46  280.58
       280.96  281.69  282.64  283.68  284.60  285.17  285.48  285.64  285.71  285.73  285.73  285.72
  15   289.44  289.34  289.13  288.82  288.39  287.81  287.03  285.97  284.60  283.23  282.06  281.18  280.74  280.61  280.67
       281.01  281.72  282.65  283.69  284.60  285.17  285.48  285.64  285.71  285.73  285.73  285.72
  16   289.44  289.34  289.14  288.83  288.39  287.81  287.04  285.98  284.64  283.31  282.22  281.46  281.13  281.05  281.06
       281.29  281.88  282.74  283.72  284.62  285.18  285.49  285.65  285.72  285.73  285.73  285.72
  17   289.44  289.34  289.14  288.83  288.40  287.83  287.07  286.04  284.76  283.58  282.68  282.14  281.92  281.87  281.86
       281.96  282.34  283.00  283.85  284.67  285.21  285.50  285.66  285.72  285.74  285.73  285.72
  18   289.45  289.35  289.15  288.85  288.43  287.87  287.14  286.18  285.05  284.10  283.47  283.12  282.98  282.94  282.92
       282.94  283.12  283.53  284.14  284.81  285.28  285.54  285.68  285.74  285.75  285.74  285.73
  19   289.47  289.38  289.18  288.89  288.49  287.96  287.29  286.45  285.56  284.90  284.50  284.29  284.20  284.16  284.13
       284.11  284.16  284.32  284.65  285.08  285.43  285.63  285.74  285.78  285.78  285.76  285.75
  20   289.51  289.42  289.24  288.97  288.60  288.13  287.55  286.88  286.25  285.82  285.57  285.43  285.36  285.33  285.30
       285.26  285.23  285.24  285.34  285.52  285.69  285.80  285.85  285.86  285.84  285.81  285.79
  21   289.58  289.50  289.33  289.08  288.76  288.35  287.87  287.35  286.88  286.58  286.40  286.29  286.23  286.19  286.16
       286.11  286.05  286.00  285.97  285.98  286.01  286.02  286.01  285.97  285.93  285.88  285.86
  22   289.65  289.58  289.43  289.21  288.92  288.57  288.17  287.74  287.37  287.13  286.98  286.88  286.82  286.79  286.75
       286.70  286.63  286.55  286.46  286.38  286.31  286.24  286.17  286.09  286.02  285.96  285.93
  23   289.73  289.66  289.53  289.33  289.07  288.77  288.42  288.06  287.75  287.54  287.40  287.31  287.25  287.22  287.18
       287.13  287.06  286.96  286.84  286.69  286.56  286.44  286.32  286.21  286.12  286.04  286.00
  24   289.80  289.74  289.62  289.44  289.21  288.93  288.63  288.31  288.03  287.83  287.71  287.62  287.56  287.53  287.49
       287.44  287.36  287.26  287.12  286.94  286.76  286.60  286.45  286.32  286.20  286.12  286.07
  25   289.86  289.80  289.69  289.52  289.31  289.06  288.78  288.49  288.23  288.05  287.92  287.83  287.78  287.75  287.71
       287.66  287.58  287.47  287.32  287.12  286.92  286.73  286.56  286.40  286.27  286.18  286.12
  26   289.90  289.84  289.74  289.58  289.38  289.15  288.89  288.61  288.36  288.18  288.06  287.97  287.92  287.88  287.85
       287.80  287.72  287.60  287.45  287.24  287.02  286.82  286.63  286.46  286.32  286.22  286.16
  27   289.92  289.87  289.76  289.61  289.42  289.19  288.94  288.67  288.42  288.25  288.13  288.04  287.99  287.95  287.92
       287.87  287.78  287.67  287.51  287.30  287.07  286.86  286.67  286.49  286.35  286.24  286.18

 HEAD WILL BE SAVED ON UNIT  32 AT END OF TIME STEP  1, STRESS PERIOD  3
1
  VOLUMETRIC BUDGET FOR ENTIRE MODEL AT END OF TIME STEP  1 IN STRESS PERIOD  3
  -----------------------------------------------------------------------------

     CUMULATIVE VOLUMES      L**3       RATES FOR THIS TIME STEP      L**3/T
     ------------------                 ------------------------

           IN:                                      IN:
           ---                                      ---
             STORAGE =    88421648.0000               STORAGE =           1.6302
       CONSTANT HEAD =           0.0000         CONSTANT HEAD =           0.0000
               WELLS =           0.0000                 WELLS =           0.0000
       RIVER LEAKAGE =           0.0000         RIVER LEAKAGE =           0.0000
            RECHARGE =189916201000.0000              RECHARGE =      292336.1880

            TOTAL IN =190004625000.0000              TOTAL IN =      292337.8130

          OUT:                                     OUT:
          ----                                     ----
             STORAGE =         156.2275               STORAGE =           0.0000
       CONSTANT HEAD =           0.0000         CONSTANT HEAD =           0.0000
               WELLS = 89344000000.0000                 WELLS =      160000.0000
       RIVER LEAKAGE =100657824000.0000         RIVER LEAKAGE =      132347.1560
            RECHARGE =           0.0000              RECHARGE =           0.0000

           TOTAL OUT =190001824000.0000             TOTAL OUT =      292347.1560

            IN - OUT =     2801664.0000              IN - OUT =          -9.3438

 PERCENT DISCREPANCY =           0.00     PERCENT DISCREPANCY =           0.00






          TIME SUMMARY AT END OF TIME STEP  1 IN STRESS PERIOD  3
                    SECONDS     MINUTES      HOURS       DAYS        YEARS
                    -----------------------------------------------------------
   TIME STEP LENGTH 3.94157E+10 6.56928E+08 1.09488E+07 4.56200E+05  1249.0    
 STRESS PERIOD TIME 3.94157E+10 6.56928E+08 1.09488E+07 4.56200E+05  1249.0    
         TOTAL TIME 5.61298E+10 9.35496E+08 1.55916E+07 6.49650E+05  1778.6    
1
